Network_09R-195/scenario_177/case.raw
0,100.0,33,0,1,60.0
GRID OPTIMIZATION COMPETITION
INPUT DATA FILES ARE RAW ROP INL CON
1,'A1',13.0,1,1,1,1,0.99946,-22.6032,1.05,0.945,1.1,0.9
2,'A2',13.0,2,1,1,1,0.99844,-22.3212,1.05,0.945,1.1,0.9
3,'A3',69.0,1,1,1,1,1.00311,-21.2822,1.05,0.945,1.1,0.9
4,'A4',13.0,1,1,1,1,0.99949,-22.6002,1.05,0.945,1.1,0.9
5,'A5',13.0,2,1,1,1,0.99844,-22.3212,1.05,0.945,1.1,0.9
6,'A6',69.0,2,1,1,1,1.0,-20.4894,1.05,0.945,1.1,0.9
7,'A7',13.0,1,1,1,1,1.00858,-22.8034,1.05,0.945,1.1,0.9
8,'A8',13.0,1,1,1,1,1.00014,-22.0065,1.05,0.945,1.1,0.9
9,'A9',69.0,2,1,1,1,1.0,-22.4261,1.05,0.945,1.1,0.9
10,'A10',69.0,1,1,1,1,0.99844,-22.3212,1.05,0.945,1.1,0.9
11,'A11',69.0,1,1,1,1,1.00401,-21.0899,1.05,0.945,1.1,0.9
12,'A12',69.0,1,1,1,1,1.00028,-21.9781,1.05,0.945,1.1,0.9
13,'A13',69.0,1,1,1,1,0.99765,-22.6965,1.05,0.945,1.1,0.9
14,'A14',69.0,1,1,1,1,0.99732,-22.7242,1.05,0.945,1.1,0.9
15,'A15',69.0,1,1,1,1,0.99835,-22.5996,1.05,0.945,1.1,0.9
16,'A16',69.0,2,1,1,1,1.0,-22.4651,1.05,0.945,1.1,0.9
17,'A17',69.0,1,1,1,1,1.00207,-21.1462,1.05,0.945,1.1,0.9
18,'A18',69.0,1,1,1,1,0.99958,-22.5157,1.05,0.945,1.1,0.9
19,'A19',69.0,1,1,1,1,0.99868,-22.7407,1.05,0.945,1.1,0.9
20,'A20',13.0,1,1,1,1,0.99815,-22.3891,1.05,0.945,1.1,0.9
21,'A21',13.0,1,1,1,1,1.00819,-22.6985,1.05,0.945,1.1,0.9
22,'A22',13.0,1,1,1,1,0.99717,-22.7669,1.05,0.945,1.1,0.9
23,'A23',69.0,2,1,1,1,1.0023,-19.7416,1.05,0.945,1.1,0.9
24,'A24',13.0,1,1,1,1,1.0001,-21.989,1.05,0.945,1.1,0.9
25,'A25',69.0,1,1,1,1,1.00385,-21.3741,1.05,0.945,1.1,0.9
26,'A26',69.0,2,1,1,1,1.0,-22.584,1.05,0.945,1.1,0.9
27,'A27',13.0,1,1,1,1,1.00753,-22.7889,1.05,0.945,1.1,0.9
28,'B28',230.0,1,1,2,1,0.99732,-21.9832,1.05,0.945,1.1,0.9
29,'B29',1.0,1,1,2,1,1.02217,-21.2421,1.05,0.945,1.1,0.9
30,'B30',115.0,1,1,2,1,0.99281,-19.3906,1.05,0.945,1.1,0.9
31,'B31',115.0,1,1,2,1,1.01188,-19.2425,1.05,0.945,1.1,0.9
32,'B32',115.0,1,1,2,1,1.00905,-26.596,1.05,0.945,1.1,0.9
33,'B33',230.0,1,1,2,1,1.00452,-23.0502,1.05,0.945,1.1,0.9
34,'B34',115.0,1,1,2,1,1.00349,-17.7844,1.05,0.945,1.1,0.9
35,'B35',115.0,1,1,2,1,1.00294,-23.9581,1.05,0.945,1.1,0.9
36,'B36',115.0,1,1,2,1,1.01916,-23.1279,1.05,0.945,1.1,0.9
37,'B37',115.0,1,1,2,1,0.99827,-21.7777,1.05,0.945,1.1,0.9
38,'B38',115.0,1,1,2,1,1.01834,-22.7567,1.05,0.945,1.1,0.9
39,'B39',230.0,1,1,2,1,1.02096,-26.7127,1.05,0.945,1.1,0.9
40,'B40',230.0,1,1,2,1,1.0123,-19.2971,1.05,0.945,1.1,0.9
41,'B41',345.0,1,1,2,1,1.02031,-21.4274,1.05,0.945,1.1,0.9
42,'B42',115.0,1,1,2,1,1.01188,-19.2425,1.05,0.945,1.1,0.9
43,'B43',230.0,2,1,2,1,0.99758,-25.2027,1.05,0.945,1.1,0.9
44,'B44',230.0,1,1,2,1,1.00604,-26.1069,1.05,0.945,1.1,0.9
45,'B45',230.0,1,1,2,1,1.01053,-28.1134,1.05,0.945,1.1,0.9
46,'B46',500.0,2,1,2,1,0.992,-19.7367,1.05,0.945,1.1,0.9
47,'B47',1.0,1,1,2,1,1.02217,-21.2421,1.05,0.945,1.1,0.9
48,'B48',22.8,2,1,2,1,1.006,-17.7404,1.05,0.945,1.1,0.9
49,'B49',230.0,1,1,2,1,1.02674,-23.5,1.05,0.945,1.1,0.9
50,'B50',345.0,2,1,2,1,1.00775,-20.3861,1.05,0.945,1.1,0.9
51,'B51',138.0,1,1,2,1,0.98944,-19.3639,1.05,0.945,1.1,0.9
52,'B52',21.0,2,1,2,1,1.00977,-17.6965,1.05,0.945,1.1,0.9
53,'B53',230.0,1,1,2,1,1.01605,-26.8053,1.05,0.945,1.1,0.9
54,'B54',115.0,2,1,2,1,1.0361,-27.8007,1.05,0.945,1.1,0.9
55,'B55',115.0,1,1,2,1,1.002,-18.7834,1.05,0.945,1.1,0.9
56,'B56',115.0,1,1,2,1,0.99816,-21.7856,1.05,0.945,1.1,0.9
57,'B57',161.0,1,1,2,1,0.9803,-31.2777,1.05,0.945,1.1,0.9
58,'B58',230.0,1,1,2,1,0.99831,-21.8253,1.05,0.945,1.1,0.9
59,'B59',161.0,2,1,2,1,0.985,-32.6556,1.05,0.945,1.1,0.9
60,'B60',115.0,1,1,2,1,1.00435,-19.0281,1.05,0.945,1.1,0.9
61,'B61',115.0,1,1,2,1,0.99431,-22.465,1.05,0.945,1.1,0.9
62,'B62',230.0,1,1,2,1,1.00661,-29.4342,1.05,0.945,1.1,0.9
63,'B63',138.0,1,1,2,1,0.99156,-19.3888,1.05,0.945,1.1,0.9
64,'B64',230.0,1,1,2,1,1.00357,-18.0396,1.05,0.945,1.1,0.9
65,'B65',230.0,1,1,2,1,1.00563,-18.5467,1.05,0.945,1.1,0.9
66,'B66',230.0,1,1,2,1,0.9985,-19.3858,1.05,0.945,1.1,0.9
67,'B67',230.0,1,1,2,1,1.00661,-18.4412,1.05,0.945,1.1,0.9
68,'B68',161.0,1,1,2,1,0.99993,-25.4168,1.05,0.945,1.1,0.9
69,'B69',230.0,2,1,2,1,1.00407,-30.1077,1.05,0.945,1.1,0.9
70,'B70',230.0,2,1,2,1,0.99818,-21.836,1.05,0.945,1.1,0.9
71,'B71',115.0,1,1,2,1,1.00351,-17.7845,1.05,0.945,1.1,0.9
72,'B72',230.0,1,1,2,1,1.01946,-26.2142,1.05,0.945,1.1,0.9
73,'B73',1.0,2,1,2,1,1.00519,-22.4344,1.05,0.945,1.1,0.9
74,'B74',115.0,1,1,2,1,1.02597,-25.616,1.05,0.945,1.1,0.9
75,'B75',230.0,1,1,2,1,1.0272,-25.0106,1.05,0.945,1.1,0.9
76,'B76',115.0,1,1,2,1,1.01842,-22.2722,1.05,0.945,1.1,0.9
77,'B77',230.0,1,1,2,1,1.02422,-23.3509,1.05,0.945,1.1,0.9
78,'B78',1.0,2,1,2,1,1.01081,-21.7699,1.05,0.945,1.1,0.9
79,'B79',230.0,1,1,2,1,1.00959,-27.7041,1.05,0.945,1.1,0.9
80,'B80',500.0,1,1,2,1,1.02405,-21.0575,1.05,0.945,1.1,0.9
81,'B81',230.0,1,1,2,1,1.00798,-22.3202,1.05,0.945,1.1,0.9
82,'C82',35.0,1,1,3,1,1.00475,-31.5727,1.05,0.945,1.1,0.9
83,'C83',115.0,1,1,3,1,1.00928,-28.1879,1.05,0.945,1.1,0.9
84,'C84',35.0,1,1,3,1,1.0186,-30.8152,1.05,0.945,1.1,0.9
85,'C85',115.0,1,1,3,1,1.02757,-31.505,1.05,0.945,1.1,0.9
86,'C86',4.0,1,1,3,1,1.03891,-30.4857,1.05,0.945,1.1,0.9
87,'C87',35.0,1,1,3,1,1.02547,-29.8043,1.05,0.945,1.1,0.9
88,'C88',22.0,1,1,3,1,1.0322,-30.6196,1.05,0.945,1.1,0.9
89,'C89',13.0,2,1,3,1,1.0062,-24.6898,1.05,0.945,1.1,0.9
90,'C90',115.0,2,1,3,1,1.00441,-29.2283,1.05,0.945,1.1,0.9
91,'C91',230.0,1,1,3,1,1.01697,-29.9793,1.05,0.945,1.1,0.9
92,'C92',115.0,1,1,3,1,1.03381,-24.9666,1.05,0.945,1.1,0.9
93,'C93',13.0,1,1,3,1,1.01527,-28.2075,1.05,0.945,1.1,0.9
94,'C94',230.0,1,1,3,1,1.02581,-25.6503,1.05,0.945,1.1,0.9
95,'C95',35.0,1,1,3,1,1.03013,-27.3538,1.05,0.945,1.1,0.9
96,'C96',115.0,1,1,3,1,1.01014,-30.9147,1.05,0.945,1.1,0.9
97,'C97',230.0,1,1,3,1,1.01763,-26.3931,1.05,0.945,1.1,0.9
98,'C98',230.0,1,1,3,1,1.00776,-27.0527,1.05,0.945,1.1,0.9
99,'C99',35.0,1,1,3,1,1.00239,-31.3786,1.05,0.945,1.1,0.9
100,'C100',35.0,1,1,3,1,1.02105,-28.4273,1.05,0.945,1.1,0.9
101,'C101',115.0,1,1,3,1,1.00869,-28.1508,1.05,0.945,1.1,0.9
102,'C102',20.0,2,1,3,1,1.0213,-31.9612,1.05,0.945,1.1,0.9
103,'C103',35.0,1,1,3,1,1.02114,-31.0224,1.05,0.945,1.1,0.9
104,'C104',35.0,1,1,3,1,1.00292,-28.3822,1.05,0.945,1.1,0.9
105,'C105',35.0,1,1,3,1,1.0217,-28.4573,1.05,0.945,1.1,0.9
106,'C106',35.0,1,1,3,1,1.01466,-29.4258,1.05,0.945,1.1,0.9
107,'C107',115.0,1,1,3,1,1.0017,-27.8062,1.05,0.945,1.1,0.9
108,'C108',35.0,1,1,3,1,1.01864,-29.9385,1.05,0.945,1.1,0.9
109,'C109',230.0,1,1,3,1,1.01846,-30.3583,1.05,0.945,1.1,0.9
110,'C110',115.0,1,1,3,1,1.00973,-30.1637,1.05,0.945,1.1,0.9
111,'C111',500.0,1,1,3,1,1.00354,-24.9209,1.05,0.945,1.1,0.9
112,'C112',35.0,1,1,3,1,0.99611,-32.1782,1.05,0.945,1.1,0.9
113,'C113',7.0,1,1,3,1,1.00969,-21.6092,1.05,0.945,1.1,0.9
114,'C114',13.0,1,1,3,1,1.01621,-28.076,1.05,0.945,1.1,0.9
115,'C115',115.0,1,1,3,1,1.02184,-31.4911,1.05,0.945,1.1,0.9
116,'C116',13.0,1,1,3,1,1.01041,-27.8499,1.05,0.945,1.1,0.9
117,'C117',13.0,1,1,3,1,1.00808,-27.6781,1.05,0.945,1.1,0.9
118,'C118',500.0,1,1,3,1,1.023,-23.6374,1.05,0.945,1.1,0.9
119,'C119',115.0,1,1,3,1,1.00081,-27.8382,1.05,0.945,1.1,0.9
120,'C120',4.0,1,1,3,1,1.02184,-31.9399,1.05,0.945,1.1,0.9
121,'C121',230.0,1,1,3,1,1.01432,-30.3614,1.05,0.945,1.1,0.9
122,'C122',22.0,2,1,3,1,1.01891,-23.7855,1.05,0.945,1.1,0.9
123,'C123',13.0,1,1,3,1,1.01102,-27.996,1.05,0.945,1.1,0.9
124,'C124',230.0,1,1,3,1,1.01065,-27.1582,1.05,0.945,1.1,0.9
125,'C125',115.0,1,1,3,1,1.01693,-31.2561,1.05,0.945,1.1,0.9
126,'C126',115.0,1,1,3,1,1.02258,-25.6098,1.05,0.945,1.1,0.9
127,'C127',13.0,1,1,3,1,1.0201,-28.3243,1.05,0.945,1.1,0.9
128,'C128',14.0,2,1,3,1,1.00759,-27.392,1.05,0.945,1.1,0.9
129,'C129',115.0,2,1,3,1,1.00991,-30.9708,1.05,0.945,1.1,0.9
130,'C130',500.0,1,1,3,1,1.0422,-25.26,1.05,0.945,1.1,0.9
131,'C131',22.0,1,1,3,1,1.03094,-30.9816,1.05,0.945,1.1,0.9
132,'C132',230.0,1,1,3,1,1.0195,-27.6052,1.05,0.945,1.1,0.9
133,'C133',22.0,1,1,3,1,1.02597,-31.8144,1.05,0.945,1.1,0.9
134,'C134',115.0,1,1,3,1,1.01161,-28.0737,1.05,0.945,1.1,0.9
135,'C135',35.0,1,1,3,1,1.00411,-30.2394,1.05,0.945,1.1,0.9
136,'C136',230.0,1,1,3,1,1.0388,-29.8859,1.05,0.945,1.1,0.9
137,'C137',14.0,2,1,3,1,1.00351,-26.7609,1.05,0.945,1.1,0.9
138,'C138',13.0,1,1,3,1,1.01932,-27.8997,1.05,0.945,1.1,0.9
139,'C139',35.0,1,1,3,1,0.99899,-27.9837,1.05,0.945,1.1,0.9
140,'C140',20.0,2,1,3,1,1.04021,-21.4097,1.05,0.945,1.1,0.9
141,'C141',230.0,1,1,3,1,1.01504,-30.0989,1.05,0.945,1.1,0.9
142,'C142',230.0,1,1,3,1,1.01415,-29.3055,1.05,0.945,1.1,0.9
143,'C143',4.0,1,1,3,1,1.02917,-32.1275,1.05,0.945,1.1,0.9
144,'C144',35.0,1,1,3,1,1.01042,-24.3584,1.05,0.945,1.1,0.9
145,'C145',14.0,2,1,3,1,1.01455,-25.942,1.05,0.945,1.1,0.9
146,'C146',500.0,2,1,3,1,1.02182,-24.1084,1.05,0.945,1.1,0.9
147,'C147',230.0,1,1,3,1,1.02213,-30.4201,1.05,0.945,1.1,0.9
148,'C148',230.0,1,1,3,1,1.01354,-26.7609,1.05,0.945,1.1,0.9
149,'C149',13.0,1,1,3,1,1.00685,-29.7947,1.05,0.945,1.1,0.9
150,'C150',115.0,1,1,3,1,1.01576,-29.2215,1.05,0.945,1.1,0.9
151,'C151',230.0,1,1,3,1,1.0222,-27.4321,1.05,0.945,1.1,0.9
152,'C152',230.0,1,1,3,1,1.01585,-27.4551,1.05,0.945,1.1,0.9
153,'C153',35.0,1,1,3,1,1.01002,-27.0747,1.05,0.945,1.1,0.9
154,'C154',35.0,1,1,3,1,1.00694,-27.7968,1.05,0.945,1.1,0.9
155,'C155',230.0,1,1,3,1,1.01692,-29.0533,1.05,0.945,1.1,0.9
156,'C156',500.0,1,1,3,1,1.02019,-28.1594,1.05,0.945,1.1,0.9
157,'C157',35.0,1,1,3,1,1.02074,-28.3058,1.05,0.945,1.1,0.9
158,'C158',35.0,1,1,3,1,1.02645,-30.0784,1.05,0.945,1.1,0.9
159,'C159',36.5,1,1,3,1,1.01726,-27.0366,1.05,0.945,1.1,0.9
160,'C160',34.5,1,1,3,1,1.02502,-27.424,1.05,0.945,1.1,0.9
161,'C161',35.0,1,1,3,1,1.01055,-27.8558,1.05,0.945,1.1,0.9
162,'C162',13.0,1,1,3,1,1.02775,-32.0344,1.05,0.945,1.1,0.9
163,'C163',13.0,2,1,3,1,1.0006,-29.3388,1.05,0.945,1.1,0.9
164,'C164',115.0,1,1,3,1,1.01437,-29.4199,1.05,0.945,1.1,0.9
165,'C165',500.0,1,1,3,1,1.01648,-27.3217,1.05,0.945,1.1,0.9
166,'C166',500.0,1,1,3,1,1.04147,-24.5923,1.05,0.945,1.1,0.9
167,'C167',230.0,1,1,3,1,1.02562,-30.4415,1.05,0.945,1.1,0.9
168,'C168',230.0,1,1,3,1,1.00619,-27.0847,1.05,0.945,1.1,0.9
169,'C169',35.0,1,1,3,1,1.00573,-30.7334,1.05,0.945,1.1,0.9
170,'C170',230.0,1,1,3,1,1.01135,-27.2976,1.05,0.945,1.1,0.9
171,'C171',35.0,1,1,3,1,1.01943,-27.5463,1.05,0.945,1.1,0.9
172,'C172',115.0,1,1,3,1,1.01533,-29.287,1.05,0.945,1.1,0.9
173,'C173',230.0,1,1,3,1,1.01127,-27.1059,1.05,0.945,1.1,0.9
174,'C174',13.0,1,1,3,1,1.02072,-30.7325,1.05,0.945,1.1,0.9
175,'C175',230.0,1,1,3,1,1.019,-25.9815,1.05,0.945,1.1,0.9
176,'C176',35.0,1,1,3,1,0.98971,-29.8862,1.05,0.945,1.1,0.9
177,'C177',230.0,1,1,3,1,1.01557,-29.9304,1.05,0.945,1.1,0.9
178,'C178',35.0,1,1,3,1,1.01637,-31.2632,1.05,0.945,1.1,0.9
179,'C179',35.0,1,1,3,1,1.01952,-26.9748,1.05,0.945,1.1,0.9
180,'C180',35.0,1,1,3,1,1.00706,-27.8952,1.05,0.945,1.1,0.9
181,'C181',230.0,1,1,3,1,1.03112,-30.1468,1.05,0.945,1.1,0.9
182,'C182',115.0,1,1,3,1,1.00979,-28.1296,1.05,0.945,1.1,0.9
183,'C183',230.0,2,1,3,1,1.0206,-26.5525,1.05,0.945,1.1,0.9
184,'C184',500.0,1,1,3,1,1.04021,-21.4097,1.05,0.945,1.1,0.9
185,'C185',230.0,1,1,3,1,1.00715,-26.9238,1.05,0.945,1.1,0.9
186,'C186',35.0,1,1,3,1,1.01158,-27.5727,1.05,0.945,1.1,0.9
187,'C187',230.0,1,1,3,1,1.01727,-29.4509,1.05,0.945,1.1,0.9
188,'C188',115.0,1,1,3,1,1.01052,-28.76,1.05,0.945,1.1,0.9
189,'C189',35.0,2,1,3,1,1.006,-27.73,1.05,0.945,1.1,0.9
190,'C190',13.0,1,1,3,1,1.02466,-27.8701,1.05,0.945,1.1,0.9
191,'C191',13.0,1,1,3,1,1.01236,-27.8236,1.05,0.945,1.1,0.9
192,'C192',13.0,1,1,3,1,1.02165,-28.2054,1.05,0.945,1.1,0.9
193,'C193',14.0,2,1,3,1,1.00759,-27.392,1.05,0.945,1.1,0.9
194,'C194',13.0,2,1,3,1,1.0062,-24.6912,1.05,0.945,1.1,0.9
195,'C195',35.0,1,1,3,1,1.00758,-26.5112,1.05,0.945,1.1,0.9
196,'C196',13.0,1,1,3,1,1.02005,-31.179,1.05,0.945,1.1,0.9
197,'C197',35.0,1,1,3,1,1.02463,-27.7394,1.05,0.945,1.1,0.9
198,'C198',115.0,1,1,3,1,1.0086,-27.8156,1.05,0.945,1.1,0.9
199,'C199',115.0,1,1,3,1,1.01023,-28.2633,1.05,0.945,1.1,0.9
200,'C200',13.2,1,1,3,1,1.00154,-27.889,1.05,0.945,1.1,0.9
...
0 / END OF BUS DATA BEGIN LOAD DATA
1,'1',1,1,1,5.071,-0.143,0.0,0.0,0.0,0.0,1,1,0
3,'1',1,1,1,0.11,0.307,0.0,0.0,0.0,0.0,1,1,0
4,'1',1,1,1,4.89,-0.211,0.0,0.0,0.0,0.0,1,1,0
6,'1',1,1,1,1.568,2.066,0.0,0.0,0.0,0.0,1,1,0
7,'1',1,1,1,3.739,0.254,0.0,0.0,0.0,0.0,1,1,0
8,'1',1,1,1,1.683,0.301,0.0,0.0,0.0,0.0,1,1,0
10,'1',1,1,1,1.168,0.766,0.0,0.0,0.0,0.0,1,1,0
11,'1',1,1,1,2.253,0.444,0.0,0.0,0.0,0.0,1,1,0
17,'1',1,1,1,7.614,-0.872,0.0,0.0,0.0,0.0,1,1,0
20,'1',1,1,1,3.991,0.571,0.0,0.0,0.0,0.0,1,1,0
21,'1',1,1,1,5.871,0.243,0.0,0.0,0.0,0.0,1,1,0
22,'1',1,1,1,2.494,0.275,0.0,0.0,0.0,0.0,1,1,0
23,'99',0,1,1,0.449,3.215,0.0,0.0,0.0,0.0,1,1,0
24,'1',1,1,1,0.691,0.544,0.0,0.0,0.0,0.0,1,1,0
25,'1',1,1,1,3.914,-0.972,0.0,0.0,0.0,0.0,1,1,0
25,'2',1,1,1,7.894,-0.539,0.0,0.0,0.0,0.0,1,1,0
27,'1',1,1,1,5.465,0.095,0.0,0.0,0.0,0.0,1,1,0
31,'1',1,1,2,-51.947,11.954,0.0,0.0,0.0,0.0,1,1,0
32,'1',1,1,2,66.929,31.175,0.0,0.0,0.0,0.0,1,1,0
34,'1',1,1,2,-87.02,-0.433,0.0,0.0,0.0,0.0,1,1,0
36,'1',1,1,2,59.709,-24.284,0.0,0.0,0.0,0.0,1,1,0
38,'1',1,1,2,25.052,3.16,0.0,0.0,0.0,0.0,1,1,0
39,'99',0,1,2,12.549,1.473,0.0,0.0,0.0,0.0,1,1,0
41,'99',1,1,2,238.627,-11.591,0.0,0.0,0.0,0.0,1,1,0
42,'1',1,1,2,-51.958,11.954,0.0,0.0,0.0,0.0,1,1,0
43,'1',1,1,2,32.815,9.027,0.0,0.0,0.0,0.0,1,1,0
43,'2',1,1,2,36.871,0.407,0.0,0.0,0.0,0.0,1,1,0
43,'99',0,1,2,3.375,-9.335,0.0,0.0,0.0,0.0,1,1,0
44,'1',1,1,2,15.804,4.138,0.0,0.0,0.0,0.0,1,1,0
45,'1',1,1,2,22.564,1.633,0.0,0.0,0.0,0.0,1,1,0
48,'1',1,1,2,-52.363,15.633,0.0,0.0,0.0,0.0,1,1,0
52,'1',1,1,2,-58.92,12.52,0.0,0.0,0.0,0.0,1,1,0
53,'1',1,1,2,59.566,-11.717,0.0,0.0,0.0,0.0,1,1,0
54,'1',1,1,2,82.914,-22.07,0.0,0.0,0.0,0.0,1,1,0
55,'1',1,1,2,-118.782,-3.789,0.0,0.0,0.0,0.0,1,1,0
57,'1',1,1,2,48.219,14.074,0.0,0.0,0.0,0.0,1,1,0
59,'1',1,1,2,37.2,9.286,0.0,0.0,0.0,0.0,1,1,0
60,'1',1,1,2,-26.933,14.998,0.0,0.0,0.0,0.0,1,1,0
61,'1',1,1,2,57.423,44.213,0.0,0.0,0.0,0.0,1,1,0
62,'1',1,1,2,16.912,2.917,0.0,0.0,0.0,0.0,1,1,0
69,'1',1,1,2,20.003,3.213,0.0,0.0,0.0,0.0,1,1,0
71,'1',1,1,2,-87.014,-0.729,0.0,0.0,0.0,0.0,1,1,0
74,'1',1,1,2,83.862,-19.026,0.0,0.0,0.0,0.0,1,1,0
76,'1',1,1,2,18.485,2.251,0.0,0.0,0.0,0.0,1,1,0
77,'1',1,1,2,13.157,-2.88,0.0,0.0,0.0,0.0,1,1,0
79,'1',1,1,2,12.784,1.443,0.0,0.0,0.0,0.0,1,1,0
81,'1',1,1,2,44.031,1.792,0.0,0.0,0.0,0.0,1,1,0
81,'2',1,1,2,68.568,5.015,0.0,0.0,0.0,0.0,1,1,0
82,'1',1,1,3,14.149,0.978,0.0,0.0,0.0,0.0,1,1,0
83,'1',1,1,3,1.316,-1.253,0.0,0.0,0.0,0.0,1,1,0
84,'1',1,1,3,10.037,0.032,0.0,0.0,0.0,0.0,1,1,0
85,'1',1,1,3,1.93,1.638,0.0,0.0,0.0,0.0,1,1,0
86,'1',1,1,3,28.018,22.588,0.0,0.0,0.0,0.0,1,1,0
87,'1',1,1,3,12.142,0.454,0.0,0.0,0.0,0.0,1,1,0
88,'1',1,1,3,23.183,1.279,0.0,0.0,0.0,0.0,1,1,0
90,'1',1,1,3,1.716,0.079,0.0,0.0,0.0,0.0,1,1,0
93,'1',1,1,3,5.975,-1.718,0.0,0.0,0.0,0.0,1,1,0
95,'1',1,1,3,14.439,1.189,0.0,0.0,0.0,0.0,1,1,0
99,'1',1,1,3,8.25,1.94,0.0,0.0,0.0,0.0,1,1,0
100,'1',1,1,3,8.787,-0.264,0.0,0.0,0.0,0.0,1,1,0
101,'1',1,1,3,0.872,-0.032,0.0,0.0,0.0,0.0,1,1,0
103,'1',1,1,3,4.835,1.321,0.0,0.0,0.0,0.0,1,1,0
104,'1',1,1,3,5.46,-2.019,0.0,0.0,0.0,0.0,1,1,0
105,'1',1,1,3,17.931,-1.152,0.0,0.0,0.0,0.0,1,1,0
106,'1',1,1,3,7.077,0.898,0.0,0.0,0.0,0.0,1,1,0
108,'1',1,1,3,14.834,2.706,0.0,0.0,0.0,0.0,1,1,0
109,'1',1,1,3,10.81,2.949,0.0,0.0,0.0,0.0,1,1,0
110,'99',1,1,3,23.819,11.651,0.0,0.0,0.0,0.0,1,1,0
112,'1',1,1,3,18.052,0.137,0.0,0.0,0.0,0.0,1,1,0
113,'1',1,1,3,-0.822,-0.37,0.0,0.0,0.0,0.0,1,1,0
114,'1',1,1,3,5.296,2.907,0.0,0.0,0.0,0.0,1,1,0
116,'1',1,1,3,5.772,-0.513,0.0,0.0,0.0,0.0,1,1,0
117,'1',1,1,3,1.414,2.938,0.0,0.0,0.0,0.0,1,1,0
120,'1',1,1,3,2.061,1.025,0.0,0.0,0.0,0.0,1,1,0
122,'1',1,1,3,25.025,20.585,0.0,0.0,0.0,0.0,1,1,0
123,'1',1,1,3,9.253,-1.295,0.0,0.0,0.0,0.0,1,1,0
126,'1',1,1,3,3.569,8.075,0.0,0.0,0.0,0.0,1,1,0
126,'2',1,1,3,5.811,8.075,0.0,0.0,0.0,0.0,1,1,0
127,'1',1,1,3,5.811,0.079,0.0,0.0,0.0,0.0,1,1,0
129,'1',1,1,3,3.728,2.056,0.0,0.0,0.0,0.0,1,1,0
130,'99',1,1,3,361.03,46.195,0.0,0.0,0.0,0.0,1,1,0
131,'1',1,1,3,30.408,3.916,0.0,0.0,0.0,0.0,1,1,0
133,'1',1,1,3,7.433,0.428,0.0,0.0,0.0,0.0,1,1,0
135,'1',1,1,3,5.603,-0.507,0.0,0.0,0.0,0.0,1,1,0
138,'1',1,1,3,4.851,-2.294,0.0,0.0,0.0,0.0,1,1,0
139,'1',1,1,3,10.174,-0.174,0.0,0.0,0.0,0.0,1,1,0
143,'1',1,1,3,7.258,4.978,0.0,0.0,0.0,0.0,1,1,0
144,'1',1,1,3,3.914,0.359,0.0,0.0,0.0,0.0,1,1,0
149,'1',1,1,3,6.354,1.046,0.0,0.0,0.0,0.0,1,1,0
153,'1',1,1,3,10.432,-2.029,0.0,0.0,0.0,0.0,1,1,0
154,'1',1,1,3,12.597,0.222,0.0,0.0,0.0,0.0,1,1,0
157,'1',1,1,3,2.445,-1.268,0.0,0.0,0.0,0.0,1,1,0
158,'1',1,1,3,8.026,0.888,0.0,0.0,0.0,0.0,1,1,0
159,'1',1,1,3,2.297,1.327,0.0,0.0,0.0,0.0,1,1,0
160,'1',1,1,3,6.617,1.009,0.0,0.0,0.0,0.0,1,1,0
161,'1',1,1,3,8.683,1.802,0.0,0.0,0.0,0.0,1,1,0
162,'1',1,1,3,5.153,0.634,0.0,0.0,0.0,0.0,1,1,0
163,'1',1,1,3,3.985,9.333,0.0,0.0,0.0,0.0,1,1,0
163,'2',1,1,3,0.625,8.435,0.0,0.0,0.0,0.0,1,1,0
163,'3',1,1,3,1.979,7.531,0.0,0.0,0.0,0.0,1,1,0
163,'4',1,1,3,8.036,7.832,0.0,0.0,0.0,0.0,1,1,0
169,'1',1,1,3,18.222,-0.523,0.0,0.0,0.0,0.0,1,1,0
170,'1',1,1,3,9.577,-3.842,0.0,0.0,0.0,0.0,1,1,0
171,'1',1,1,3,17.147,4.767,0.0,0.0,0.0,0.0,1,1,0
174,'1',1,1,3,8.59,1.427,0.0,0.0,0.0,0.0,1,1,0
176,'1',1,1,3,6.743,0.613,0.0,0.0,0.0,0.0,1,1,0
178,'1',1,1,3,5.339,3.382,0.0,0.0,0.0,0.0,1,1,0
179,'1',1,1,3,7.85,-0.222,0.0,0.0,0.0,0.0,1,1,0
180,'1',1,1,3,11.978,-1.062,0.0,0.0,0.0,0.0,1,1,0
183,'1',1,1,3,65.333,6.685,0.0,0.0,0.0,0.0,1,1,0
186,'1',1,1,3,8.459,0.819,0.0,0.0,0.0,0.0,1,1,0
189,'1',1,1,3,31.077,0.005,0.0,0.0,0.0,0.0,1,1,0
190,'1',1,1,3,3.295,-1.533,0.0,0.0,0.0,0.0,1,1,0
191,'1',1,1,3,4.671,-1.205,0.0,0.0,0.0,0.0,1,1,0
192,'1',1,1,3,2.801,0.565,0.0,0.0,0.0,0.0,1,1,0
195,'1',1,1,3,6.896,-0.803,0.0,0.0,0.0,0.0,1,1,0
196,'1',1,1,3,3.596,2.331,0.0,0.0,0.0,0.0,1,1,0
197,'1',1,1,3,14.324,0.777,0.0,0.0,0.0,0.0,1,1,0
200,'1',1,1,3,4.835,0.053,0.0,0.0,0.0,0.0,1,1,0
201,'1',1,1,3,13.211,3.409,0.0,0.0,0.0,0.0,1,1,0
202,'1',1,1,3,7.943,1.115,0.0,0.0,0.0,0.0,1,1,0
203,'1',1,1,3,0.866,0.454,0.0,0.0,0.0,0.0,1,1,0
205,'1',1,1,3,7.505,-3.599,0.0,0.0,0.0,0.0,1,1,0
206,'99',1,1,3,23.307,12.56,0.0,0.0,0.0,0.0,1,1,0
207,'1',1,1,3,7.121,1.77,0.0,0.0,0.0,0.0,1,1,0
209,'1',1,1,3,13.502,6.226,0.0,0.0,0.0,0.0,1,1,0
210,'1',1,1,3,4.265,-0.402,0.0,0.0,0.0,0.0,1,1,0
214,'1',1,1,3,2.829,1.115,0.0,0.0,0.0,0.0,1,1,0
216,'1',1,1,3,1.447,2.632,0.0,0.0,0.0,0.0,1,1,0
217,'1',1,1,3,11.26,-2.014,0.0,0.0,0.0,0.0,1,1,0
220,'1',1,1,3,5.082,-0.645,0.0,0.0,0.0,0.0,1,1,0
221,'1',1,1,3,5.931,2.938,0.0,0.0,0.0,0.0,1,1,0
222,'1',1,1,3,9.275,-0.137,0.0,0.0,0.0,0.0,1,1,0
224,'1',1,1,3,10.12,1.961,0.0,0.0,0.0,0.0,1,1,0
225,'1',1,1,3,5.394,2.833,0.0,0.0,0.0,0.0,1,1,0
230,'1',1,1,3,25.502,5.539,0.0,0.0,0.0,0.0,1,1,0
231,'1',1,1,3,14.127,0.978,0.0,0.0,0.0,0.0,1,1,0
232,'1',1,1,3,6.54,-0.227,0.0,0.0,0.0,0.0,1,1,0
234,'1',1,1,3,9.221,-2.764,0.0,0.0,0.0,0.0,1,1,0
235,'1',1,1,3,3.218,0.756,0.0,0.0,0.0,0.0,1,1,0
237,'99',1,1,3,4.172,1.276,0.0,0.0,0.0,0.0,1,1,0
238,'1',1,1,3,16.248,8.958,0.0,0.0,0.0,0.0,1,1,0
239,'1',1,1,3,4.55,0.962,0.0,0.0,0.0,0.0,1,1,0
240,'1',1,1,3,18.48,10.765,0.0,0.0,0.0,0.0,1,1,0
241,'1',1,1,3,1.031,0.164,0.0,0.0,0.0,0.0,1,1,0
243,'1',1,1,3,1.595,-0.264,0.0,0.0,0.0,0.0,1,1,0
245,'1',1,1,3,28.062,3.06,0.0,0.0,0.0,0.0,1,1,0
246,'1',1,1,3,21.571,0.618,0.0,0.0,0.0,0.0,1,1,0
247,'1',1,1,3,6.798,1.057,0.0,0.0,0.0,0.0,1,1,0
247,'2',1,1,3,6.798,1.057,0.0,0.0,0.0,0.0,1,1,0
248,'1',1,1,3,3.317,-1.892,0.0,0.0,0.0,0.0,1,1,0
249,'1',1,1,3,9.467,1.908,0.0,0.0,0.0,0.0,1,1,0
250,'1',1,1,3,7.061,-4.027,0.0,0.0,0.0,0.0,1,1,0
251,'1',1,1,3,7.176,5.443,0.0,0.0,0.0,0.0,1,1,0
253,'1',1,1,3,3.848,1.295,0.0,0.0,0.0,0.0,1,1,0
254,'99',0,1,3,20.969,9.123,0.0,0.0,0.0,0.0,1,1,0
256,'99',0,1,3,3.903,-5.802,0.0,0.0,0.0,0.0,1,1,0
257,'1',1,1,3,12.022,-2.283,0.0,0.0,0.0,0.0,1,1,0
258,'1',1,1,3,4.978,0.555,0.0,0.0,0.0,0.0,1,1,0
259,'1',1,1,3,3.295,0.206,0.0,0.0,0.0,0.0,1,1,0
260,'1',1,1,3,8.716,1.929,0.0,0.0,0.0,0.0,1,1,0
266,'1',1,1,3,3.892,-0.491,0.0,0.0,0.0,0.0,1,1,0
266,'2',1,1,3,3.892,-0.491,0.0,0.0,0.0,0.0,1,1,0
266,'99',1,1,3,33.575,14.103,0.0,0.0,0.0,0.0,1,1,0
267,'1',1,1,3,4.55,0.935,0.0,0.0,0.0,0.0,1,1,0
270,'1',1,1,3,4.819,-1.686,0.0,0.0,0.0,0.0,1,1,0
272,'99',1,1,3,52.937,12.876,0.0,0.0,0.0,0.0,1,1,0
273,'1',1,1,3,5.685,3.113,0.0,0.0,0.0,0.0,1,1,0
274,'1',1,1,3,9.221,-2.759,0.0,0.0,0.0,0.0,1,1,0
275,'1',1,1,3,15.284,0.423,0.0,0.0,0.0,0.0,1,1,0
276,'1',1,1,3,8.65,-2.029,0.0,0.0,0.0,0.0,1,1,0
278,'1',1,1,3,8.08,1.448,0.0,0.0,0.0,0.0,1,1,0
281,'1',1,1,3,8.7,2.822,0.0,0.0,0.0,0.0,1,1,0
281,'2',1,1,3,13.255,3.509,0.0,0.0,0.0,0.0,1,1,0
281,'3',1,1,3,6.425,2.484,0.0,0.0,0.0,0.0,1,1,0
281,'99',1,1,3,22.004,49.654,0.0,0.0,0.0,0.0,1,1,0
282,'1',1,1,3,0.702,0.539,0.0,0.0,0.0,0.0,1,1,0
283,'1',1,1,3,6.776,4.418,0.0,0.0,0.0,0.0,1,1,0
283,'2',1,1,3,6.776,4.418,0.0,0.0,0.0,0.0,1,1,0
286,'1',1,1,3,10.125,0.861,0.0,0.0,0.0,0.0,1,1,0
288,'1',1,1,3,15.58,1.792,0.0,0.0,0.0,0.0,1,1,0
289,'1',1,1,3,10.328,-0.682,0.0,0.0,0.0,0.0,1,1,0
290,'1',1,1,3,2.522,1.12,0.0,0.0,0.0,0.0,1,1,0
291,'1',1,1,3,0.735,3.345,0.0,0.0,0.0,0.0,1,1,0
292,'1',1,1,3,8.25,0.676,0.0,0.0,0.0,0.0,1,1,0
293,'1',1,1,3,17.021,-3.826,0.0,0.0,0.0,0.0,1,1,0
296,'1',1,1,3,14.856,0.095,0.0,0.0,0.0,0.0,1,1,0
297,'1',1,1,3,8.744,2.035,0.0,0.0,0.0,0.0,1,1,0
299,'1',1,1,3,2.735,1.443,0.0,0.0,0.0,0.0,1,1,0
301,'1',1,1,3,13.272,1.522,0.0,0.0,0.0,0.0,1,1,0
303,'1',1,1,3,17.197,-1.385,0.0,0.0,0.0,0.0,1,1,0
304,'1',1,1,3,4.972,1.67,0.0,0.0,0.0,0.0,1,1,0
304,'2',1,1,3,3.552,1.496,0.0,0.0,0.0,0.0,1,1,0
305,'1',1,1,3,4.983,-0.735,0.0,0.0,0.0,0.0,1,1,0
308,'1',1,1,3,1.08,1.105,0.0,0.0,0.0,0.0,1,1,0
311,'1',1,1,3,4.654,-1.718,0.0,0.0,0.0,0.0,1,1,0
312,'1',1,1,3,17.197,2.294,0.0,0.0,0.0,0.0,1,1,0
313,'99',1,1,3,6.301,5.335,0.0,0.0,0.0,0.0,1,1,0
315,'99',1,1,3,5.264,27.237,0.0,0.0,0.0,0.0,1,1,0
317,'1',1,1,3,8.618,-4.059,0.0,0.0,0.0,0.0,1,1,0
...
0 / END OF LOAD DATA BEGIN FIXED SHUNT DATA
23,'99',1,0.0,6.08
39,'99',1,0.0,2.673
43,'99',1,0.0,-17.596
50,'99',1,0.0,-109.984
69,'99',1,0.0,-47.238
73,'99',1,0.0,17.995
78,'99',1,0.0,12.364
90,'99',1,0.0,-4.777
129,'99',1,0.0,-8.836
146,'99',1,0.0,-76.414
254,'99',1,0.0,15.656
256,'99',1,0.0,-10.593
328,'99',1,0.0,-47.352
374,'99',1,0.0,24.849
406,'99',1,0.0,14.101
408,'99',1,0.0,-15.638
447,'99',1,0.0,-61.795
469,'99',1,0.0,-47.638
495,'99',1,0.0,136.479
514,'99',1,0.0,34.219
558,'99',1,0.0,-1.04
570,'99',1,0.0,-22.098
651,'99',1,0.0,-19.091
724,'99',1,0.0,12.799
748,'99',1,0.0,-4.196
764,'99',1,0.0,-8.21
819,'99',1,0.0,-9.372
834,'99',1,0.0,-0.079
837,'99',1,0.0,-258.636
849,'99',1,0.0,4.582
858,'99',1,0.0,-40.719
862,'99',1,0.0,9.034
863,'99',1,0.0,-46.487
880,'99',1,0.0,82.823
886,'99',1,0.0,11.758
888,'99',1,0.0,17.822
910,'99',1,0.0,43.27
924,'99',1,0.0,-9.42
947,'99',1,0.0,-33.746
951,'99',1,0.0,-30.599
955,'99',1,0.0,-29.38
965,'99',1,0.0,-18.858
968,'99',1,0.0,-15.812
971,'99',1,0.0,-20.881
973,'99',1,0.0,-15.59
982,'99',1,0.0,84.424
991,'99',1,0.0,1.414
1007,'99',1,0.0,4.408
1020,'99',1,0.0,-42.239
1027,'99',1,0.0,-7.724
1035,'99',1,0.0,-1.864
1067,'99',1,0.0,19.4
1104,'99',1,0.0,-12.27
1151,'99',1,0.0,-1.012
1158,'99',1,0.0,-25.146
1159,'99',1,0.0,-13.283
1176,'99',1,0.0,-17.019
1180,'99',1,0.0,16.454
1208,'99',1,0.0,8.606
1237,'99',1,0.0,1.103
1266,'99',1,0.0,-58.49
1279,'99',1,0.0,-45.303
1308,'99',1,0.0,-14.144
1333,'99',1,0.0,-15.4
1334,'99',1,0.0,38.159
1383,'99',1,0.0,-10.047
1414,'99',1,0.0,-10.98
1446,'99',1,0.0,-12.405
1452,'99',1,0.0,12.917
1466,'99',1,0.0,-11.04
1496,'99',1,0.0,55.878
1529,'99',1,0.0,-2.296
1533,'99',1,0.0,10.264
1551,'99',1,0.0,-1.7
1559,'99',1,0.0,-0.664
1574,'99',1,0.0,-17.104
1585,'99',1,0.0,1.862
1587,'99',1,0.0,0.392
1605,'99',1,0.0,-46.364
1613,'99',1,0.0,-32.545
1617,'99',1,0.0,8.006
1628,'99',1,0.0,51.574
1642,'99',1,0.0,-14.601
1652,'99',1,0.0,-3.926
1708,'99',1,0.0,10.895
1749,'99',1,0.0,-40.068
1753,'99',1,0.0,46.427
1780,'99',1,0.0,3.356
1786,'99',1,0.0,-14.303
1798,'99',1,0.0,44.417
1800,'99',1,0.0,63.612
1803,'99',1,0.0,0.069
1805,'99',1,0.0,-9.353
1810,'99',1,0.0,49.787
1811,'99',1,0.0,3.255
1829,'99',1,0.0,-2.944
1856,'99',1,0.0,55.037
1888,'99',1,0.0,-10.448
1894,'99',1,0.0,-21.574
1913,'99',1,0.0,-12.012
1920,'99',1,0.0,2.336
1923,'99',1,0.0,-8.593
1944,'99',1,0.0,-18.084
1955,'99',1,0.0,-0.062
1960,'99',1,0.0,19.782
1973,'99',1,0.0,27.907
1976,'99',1,0.0,-10.239
1978,'99',1,0.0,-42.917
1988,'99',1,0.0,-119.438
1994,'99',1,0.0,54.768
2009,'99',1,0.0,20.008
2010,'99',1,0.0,-14.912
2011,'99',1,0.0,5.601
2026,'99',1,0.0,-20.459
2036,'99',1,0.0,-9.687
2038,'99',1,0.0,-1.836
2046,'99',1,0.0,10.593
2053,'99',1,0.0,17.403
2080,'99',1,0.0,-25.378
2082,'99',1,0.0,-42.508
2085,'99',1,0.0,59.843
2086,'99',1,0.0,-15.77
2087,'99',1,0.0,3.175
2090,'99',1,0.0,19.466
2092,'99',1,0.0,-104.782
2099,'99',1,0.0,-3.887
2103,'99',1,0.0,13.015
2104,'99',1,0.0,-3.064
2111,'99',1,0.0,10.469
2144,'99',1,0.0,-6.024
2171,'99',1,0.0,-23.897
2252,'99',1,0.0,-26.82
2267,'99',1,0.0,-10.774
2270,'99',1,0.0,11.387
2360,'99',1,0.0,25.558
2401,'99',1,0.0,15.67
2430,'99',1,0.0,33.77
2462,'99',1,0.0,92.903
2505,'99',1,0.0,-6.255
2516,'99',1,0.0,10.533
2589,'99',1,0.0,2.192
2682,'99',1,0.0,-2.595
2687,'99',1,0.0,9.039
2705,'99',1,0.0,0.646
2710,'99',1,0.0,9.969
2742,'99',1,0.0,-116.24
2747,'99',1,0.0,50.026
2749,'99',1,0.0,6.796
2759,'99',1,0.0,1.712
2856,'99',1,0.0,9.837
2943,'99',1,0.0,30.833
2964,'99',1,0.0,-66.314
2965,'99',1,0.0,-71.035
2975,'99',1,0.0,4.025
2981,'99',1,0.0,26.552
2983,'99',1,0.0,89.412
2984,'99',1,0.0,-1.958
2988,'99',1,0.0,-0.704
2989,'99',1,0.0,-14.318
3060,'99',1,0.0,-300.88
3062,'99',1,0.0,-36.507
3254,'99',1,0.0,-0.081
3381,'99',1,0.0,-34.393
3444,'99',1,0.0,-14.983
3445,'99',1,0.0,12.724
3446,'99',1,0.0,-11.374
3447,'99',1,0.0,4.64
3449,'99',1,0.0,15.991
3470,'99',1,0.0,2.129
3473,'99',1,0.0,39.294
3497,'99',1,0.0,8.082
3525,'99',1,0.0,-3.461
3545,'99',1,0.0,10.53
3553,'99',1,0.0,0.625
3554,'99',1,0.0,15.146
3556,'99',1,0.0,2.81
3576,'99',1,0.0,-10.698
3577,'99',1,0.0,-8.903
3661,'99',1,0.0,38.868
3702,'99',1,0.0,-2.662
3731,'99',1,0.0,-1.183
3810,'99',1,0.0,-79.932
3884,'99',1,0.0,38.876
3885,'99',1,0.0,45.421
3935,'99',1,0.0,30.689
3937,'99',1,0.0,94.332
3945,'99',1,0.0,20.992
4009,'99',1,0.0,33.785
4066,'99',1,0.0,53.275
4080,'99',1,0.0,60.581
4085,'99',1,0.0,-6.25
4095,'99',1,0.0,10.501
4143,'99',1,0.0,6.373
4170,'99',1,0.0,23.561
4222,'99',1,0.0,38.278
4229,'99',1,0.0,50.689
4248,'99',1,0.0,162.478
4254,'99',1,0.0,43.385
4266,'99',1,0.0,103.245
4301,'99',1,0.0,50.957
...
0 / END OF FIXED SHUNT DATA BEGIN GENERATOR DATA
2,'1',0.0,0.0,21.136,-21.136,0.9622,0,71.2,0.0,0.181,0.0,0.0,1.0,0,100.0,67.941,42.75,1,1.0,0,1.0,0,1.0,0,1.0,0,1.0
5,'1',0.0,0.0,15.15,-9.9,0.985,0,30.11,0.0,0.2,0.0,0.0,1.0,0,100.0,154.412,25.795,1,1.0,0,1.0,0,1.0,0,1.0,0,1.0
6,'99',17.368,-4.922,550.0,-550.0,1.0,0,100.0,0.0,1.0,0.0,0.0,1.0,1,100.0,1600.0,14.877,1,1.0,0,1.0,0,1.0,0,1.0,0,1.0
9,'99',15.809,-1.068,550.0,-550.0,1.0,0,100.0,0.0,1.0,0.0,0.0,1.0,1,100.0,1600.0,13.542,1,1.0,0,1.0,0,1.0,0,1.0,0,1.0
16,'99',2.2,-24.865,550.0,-550.0,1.0,0,100.0,0.0,1.0,0.0,0.0,1.0,1,100.0,1600.0,2.0,1,1.0,0,1.0,0,1.0,0,1.0,0,1.0
23,'1',2.2,0.0,7.686,-2.025,0.985,0,100.0,0.0,1.0,0.0,0.0,1.0,0,100.0,24.706,2.0,1,1.0,0,1.0,0,1.0,0,1.0,0,1.0
26,'99',2.635,1.186,550.0,-550.0,1.0,0,100.0,0.0,1.0,0.0,0.0,1.0,1,100.0,1600.0,2.257,1,1.0,0,1.0,0,1.0,0,1.0,0,1.0
43,'1',2.2,0.0,9.607,-9.607,1.0046,0,100.0,0.0,1.0,0.0,0.0,1.0,0,100.0,30.882,2.0,1,1.0,0,1.0,0,1.0,0,1.0,0,1.0
46,'93',2.2,-304.119,600.0,-600.0,0.992,0,2300.0,0.0,1.0,0.0,0.0,1.0,1,100.0,40.0,2.0,1,1.0,0,1.0,0,1.0,0,1.0,0,1.0
48,'1',2.2,-32.875,216.361,-155.86,1.006,0,100.0,0.0,1.0,0.0,0.0,1.0,1,100.0,40.0,2.0,1,1.0,0,1.0,0,1.0,0,1.0,0,1.0
50,'99',2.2,-33.333,33.333,-33.333,0.99264,0,100.0,0.0,1.0,0.0,0.0,1.0,1,100.0,357.409,2.0,1,1.0,0,1.0,0,1.0,0,1.0,0,1.0
52,'1',0.0,0.0,139.885,-115.13,1.006,0,100.0,0.0,1.0,0.0,0.0,1.0,0,100.0,449.647,22.482,1,1.0,0,1.0,0,1.0,0,1.0,0,1.0
54,'99',68.318,-10.089,550.0,-550.0,1.0361,0,100.0,0.0,1.0,0.0,0.0,1.0,1,100.0,1600.0,58.52,1,1.0,0,1.0,0,1.0,0,1.0,0,1.0
59,'98',2.2,23.235,500.0,-500.0,0.985,0,1600.0,0.0,1.0,0.0,0.0,1.0,1,100.0,1882.353,2.0,1,1.0,0,1.0,0,1.0,0,1.0,0,1.0
69,'99',2.2,-26.676,26.676,-26.676,0.99253,0,100.0,0.0,1.0,0.0,0.0,1.0,1,100.0,85.748,2.0,1,1.0,0,1.0,0,1.0,0,1.0,0,1.0
70,'98',2.2,-36.6,36.6,-36.6,0.985,0,100.0,0.0,1.0,0.0,0.0,1.0,1,100.0,40.0,2.0,1,1.0,0,1.0,0,1.0,0,1.0,0,1.0
73,'99',2.2,-33.333,33.333,-33.333,0.99426,0,100.0,0.0,1.0,0.0,0.0,1.0,1,100.0,215.302,2.0,1,1.0,0,1.0,0,1.0,0,1.0,0,1.0
78,'99',2.2,-33.333,33.333,-33.333,1.00027,0,100.0,0.0,1.0,0.0,0.0,1.0,1,100.0,150.48,2.0,1,1.0,0,1.0,0,1.0,0,1.0,0,1.0
89,'1',128.25,-47.552,134.667,-134.667,1.0062,0,804.0,0.0,0.186,0.0,0.0,1.0,1,100.0,689.706,64.125,1,1.0,0,1.0,0,1.0,0,1.0,0,1.0
90,'99',2.2,-13.507,13.507,-13.507,0.99164,0,100.0,0.0,1.0,0.0,0.0,1.0,1,100.0,43.417,2.0,1,1.0,0,1.0,0,1.0,0,1.0,0,1.0
102,'1',0.0,0.0,61.104,-61.104,0.9582,0,200.54,0.0,0.195,0.0,0.0,1.0,0,100.0,196.412,85.5,1,1.0,0,1.0,0,1.0,0,1.0,0,1.0
122,'1',0.0,0.0,291.77,-195.238,0.985,0,1200.0,0.0,0.344,0.0,0.0,1.0,0,100.0,1464.327,897.75,1,1.0,0,1.0,0,1.0,0,1.0,0,1.0
128,'1',0.0,0.0,31.567,-31.567,1.0088,0,104.0,0.0,0.186,0.0,0.0,1.0,0,100.0,101.471,71.25,1,1.0,0,1.0,0,1.0,0,1.0,0,1.0
129,'99',2.2,-9.775,9.775,-9.775,0.985,0,100.0,0.0,1.0,0.0,0.0,1.0,1,100.0,31.422,2.0,1,1.0,0,1.0,0,1.0,0,1.0,0,1.0
137,'1',0.0,0.0,22.5,-22.5,1.0156,0,67.5,0.0,0.165,0.0,0.0,1.0,0,100.0,327.059,16.353,1,1.0,0,1.0,0,1.0,0,1.0,0,1.0
137,'2',0.0,0.0,22.194,-22.194,1.0156,0,67.5,0.0,0.165,0.0,0.0,1.0,0,100.0,71.341,14.25,1,1.0,0,1.0,0,1.0,0,1.0,0,1.0
140,'1',0.0,0.0,286.303,-99.0,1.013,0,848.0,0.0,0.324,0.0,0.0,1.0,0,100.0,920.294,9.5,1,1.0,0,1.0,0,1.0,0,1.0,0,1.0
145,'1',0.0,0.0,56.492,-56.492,1.0174,0,234.0,0.0,0.228,0.0,0.0,1.0,0,100.0,181.588,138.7,1,1.0,0,1.0,0,1.0,0,1.0,0,1.0
146,'99',2.2,-33.333,33.333,-33.333,1.02,0,100.0,0.0,1.0,0.0,0.0,1.0,1,100.0,40.0,2.0,1,1.0,0,1.0,0,1.0,0,1.0,0,1.0
163,'1',41.112,-15.047,15.047,-15.047,0.985,0,100.0,0.0,1.0,0.0,0.0,1.0,1,100.0,56.54,2.418,1,1.0,0,1.0,0,1.0,0,1.0,0,1.0
163,'2',0.0,0.0,33.333,-33.333,0.985,0,100.0,0.0,1.0,0.0,0.0,1.0,0,100.0,301.177,15.059,1,1.0,0,1.0,0,1.0,0,1.0,0,1.0
183,'99',101.251,-9.136,550.0,-550.0,1.0206,0,100.0,0.0,1.0,0.0,0.0,1.0,1,100.0,1600.0,80.0,1,1.0,0,1.0,0,1.0,0,1.0,0,1.0
189,'1',3.942,-0.83,104.31,-104.31,1.006,0,100.0,0.0,1.0,0.0,0.0,1.0,1,100.0,335.294,3.548,1,1.0,0,1.0,0,1.0,0,1.0,0,1.0
193,'1',0.0,0.0,31.567,-31.567,1.0088,0,104.0,0.0,0.186,0.0,0.0,1.0,0,100.0,101.471,71.25,1,1.0,0,1.0,0,1.0,0,1.0,0,1.0
194,'1',128.25,-47.392,134.667,-134.667,1.0062,0,704.0,0.0,0.186,0.0,0.0,1.0,1,100.0,689.706,64.125,1,1.0,0,1.0,0,1.0,0,1.0,0,1.0
218,'1',0.0,0.0,39.583,-39.583,1.0097,0,160.0,0.0,0.16,0.01,0.2,1.0,0,100.0,127.235,96.9,1,1.0,0,1.0,0,1.0,0,1.0,0,1.0
218,'2',0.0,0.0,39.583,-39.583,1.0097,0,160.0,0.0,0.16,0.01,0.2,1.0,0,100.0,127.235,96.9,1,1.0,0,1.0,0,1.0,0,1.0,0,1.0
218,'3',0.0,0.0,39.583,-39.583,1.0097,0,160.0,0.0,0.16,0.01,0.2,1.0,0,100.0,127.235,96.9,1,1.0,0,1.0,0,1.0,0,1.0,0,1.0
219,'93',2.2,-600.0,600.0,-600.0,0.992,0,2000.0,0.0,1.0,0.0,0.0,1.0,1,100.0,40.0,2.0,1,1.0,0,1.0,0,1.0,0,1.0,0,1.0
219,'94',2.2,-600.0,600.0,-600.0,0.992,0,2000.0,0.0,1.0,0.0,0.0,1.0,1,100.0,40.0,2.0,1,1.0,0,1.0,0,1.0,0,1.0,0,1.0
223,'1',0.0,0.0,197.613,-137.41,0.992,0,1055.0,0.0,0.314,0.0,0.0,1.0,0,100.0,635.206,31.76,1,1.0,0,1.0,0,1.0,0,1.0,0,1.0
227,'1',128.25,-47.552,134.667,-134.667,1.0062,0,704.0,0.0,0.186,0.0,0.0,1.0,1,100.0,689.706,64.125,1,1.0,0,1.0,0,1.0,0,1.0,0,1.0
238,'1',1243.3,-195.413,437.88,-195.413,0.985,0,1200.0,0.0,0.344,0.0,0.0,1.0,1,100.0,1462.706,898.7,1,1.0,0,1.0,0,1.0,0,1.0,0,1.0
247,'1',0.0,0.0,17.31,-10.61,1.006,0,25.0,0.0,0.17,0.0,0.0,1.0,0,100.0,302.353,15.118,1,1.0,0,1.0,0,1.0,0,1.0,0,1.0
247,'2',0.0,0.0,17.31,-10.61,1.006,0,25.0,0.0,0.17,0.0,0.0,1.0,0,100.0,315.294,15.765,1,1.0,0,1.0,0,1.0,0,1.0,0,1.0
247,'3',0.0,0.0,17.31,-10.61,1.006,0,25.0,0.0,0.17,0.0,0.0,1.0,0,100.0,343.529,8.24,1,1.0,0,1.0,0,1.0,0,1.0,0,1.0
263,'1',0.0,0.0,62.97,-67.458,0.985,0,198.9,0.0,0.1686,0.0,0.0,1.0,0,100.0,216.838,9.5,1,1.0,0,1.0,0,1.0,0,1.0,0,1.0
267,'1',0.0,0.0,33.333,-33.333,0.9827,0,100.0,0.0,1.0,0.0,0.0,1.0,0,100.0,338.823,16.941,1,1.0,0,1.0,0,1.0,0,1.0,0,1.0
282,'1',2.2,-2.002,166.4,-166.4,1.01,0,800.0,0.0,0.239,0.0,0.0,1.0,1,100.0,810.588,2.0,1,1.0,0,1.0,0,1.0,0,1.0,0,1.0
282,'2',29.844,-27.165,200.59,-200.59,1.01,0,800.0,0.0,0.15,0.0,0.0,1.0,1,100.0,743.035,14.922,1,1.0,0,1.0,0,1.0,0,1.0,0,1.0
289,'1',2.2,0.0,3.883,-3.883,0.9843,0,100.0,0.0,1.0,0.0,0.0,1.0,0,100.0,12.482,2.0,1,1.0,0,1.0,0,1.0,0,1.0,0,1.0
298,'1',0.0,0.0,59.951,-59.951,1.0174,0,226.0,0.0,0.189,0.0,0.0,1.0,0,100.0,192.706,147.25,1,1.0,0,1.0,0,1.0,0,1.0,0,1.0
328,'99',2.2,-15.415,15.415,-15.415,0.99191,0,100.0,0.0,1.0,0.0,0.0,1.0,1,100.0,40.0,2.0,1,1.0,0,1.0,0,1.0,0,1.0,0,1.0
336,'1',0.0,0.0,57.645,-57.645,0.985,0,198.9,0.0,0.1686,0.0,0.0,1.0,0,100.0,185.294,9.5,1,1.0,0,1.0,0,1.0,0,1.0,0,1.0
337,'1',0.0,0.0,16.909,-16.909,1.0087,0,57.87,0.0,0.148,0.0047,0.0939,1.0,0,100.0,54.353,11.4,1,1.0,0,1.0,0,1.0,0,1.0,0,1.0
339,'1',286.0,-73.32,71.77,-73.32,0.99599,0,88.24,0.0,0.125,0.0064,0.1285,1.0,1,100.0,336.471,16.824,1,1.0,0,1.0,0,1.0,0,1.0,0,1.0
339,'2',0.0,0.0,71.77,-73.32,0.99599,0,131.6,0.0,0.169,0.0,0.0,1.0,0,100.0,327.059,16.353,1,1.0,0,1.0,0,1.0,0,1.0,0,1.0
339,'3',0.0,0.0,42.287,-42.287,0.99599,0,131.6,0.0,0.169,0.0,0.0,1.0,0,100.0,135.926,60.48,1,1.0,0,1.0,0,1.0,0,1.0,0,1.0
340,'1',0.0,0.0,33.333,-33.333,0.9962,0,100.0,0.0,1.0,0.0,0.0,1.0,0,100.0,340.0,17.0,1,1.0,0,1.0,0,1.0,0,1.0,0,1.0
340,'2',0.0,0.0,33.333,-33.333,0.9962,0,100.0,0.0,1.0,0.0,0.0,1.0,0,100.0,348.235,17.412,1,1.0,0,1.0,0,1.0,0,1.0,0,1.0
340,'3',0.0,0.0,33.333,-33.333,0.9962,0,100.0,0.0,1.0,0.0,0.0,1.0,0,100.0,302.353,15.118,1,1.0,0,1.0,0,1.0,0,1.0,0,1.0
346,'98',2.2,-36.6,36.6,-36.6,0.999,0,100.0,0.0,1.0,0.0,0.0,1.0,1,100.0,40.0,2.0,1,1.0,0,1.0,0,1.0,0,1.0,0,1.0
351,'1',0.0,0.0,92.232,-92.232,0.985,0,100.0,0.0,1.0,0.0,0.0,1.0,0,100.0,296.471,14.824,1,1.0,0,1.0,0,1.0,0,1.0,0,1.0
370,'1',0.0,0.0,66.059,-44.625,0.985,0,181.5,0.0,0.253,0.0,0.0,1.0,0,100.0,212.339,10.0,1,1.0,0,1.0,0,1.0,0,1.0,0,1.0
371,'1',0.0,0.0,141.74,-90.67,1.02,0,384.0,0.0,0.205,0.0,0.0,1.0,0,100.0,518.486,285.0,1,1.0,0,1.0,0,1.0,0,1.0,0,1.0
387,'1',0.0,0.0,6.149,-6.149,0.98962,0,100.0,0.0,1.0,0.0,0.0,1.0,0,100.0,19.765,4.75,1,1.0,0,1.0,0,1.0,0,1.0,0,1.0
388,'1',215.78,-44.55,78.975,-44.55,0.985,0,82.78,0.0,0.246,0.0,0.0,1.0,1,100.0,296.667,50.333,1,1.0,0,1.0,0,1.0,0,1.0,0,1.0
416,'1',0.0,0.0,14.603,-14.603,1.0357,0,54.4,0.0,0.271,0.0,0.0,1.0,0,100.0,46.941,2.347,1,1.0,0,1.0,0,1.0,0,1.0,0,1.0
419,'99',347.587,-175.767,550.0,-550.0,1.0443,0,100.0,0.0,1.0,0.0,0.0,1.0,1,100.0,1600.0,80.0,1,1.0,0,1.0,0,1.0,0,1.0,0,1.0
424,'1',0.0,0.0,78.397,-42.075,0.985,0,82.78,0.0,0.246,0.0,0.0,1.0,0,100.0,252.0,50.108,1,1.0,0,1.0,0,1.0,0,1.0,0,1.0
426,'1',0.0,0.0,33.333,-33.333,1.001,0,100.0,0.0,1.0,0.0,0.0,1.0,0,100.0,304.706,15.235,1,1.0,0,1.0,0,1.0,0,1.0,0,1.0
432,'1',0.0,0.0,63.41,-63.41,1.0087,0,203.25,0.0,0.226,0.0094,0.1876,1.0,0,100.0,203.824,50.54,1,1.0,0,1.0,0,1.0,0,1.0,0,1.0
444,'1',0.0,0.0,92.232,-92.232,0.99375,0,100.0,0.0,1.0,0.0,0.0,1.0,0,100.0,296.471,10.8,1,1.0,0,1.0,0,1.0,0,1.0,0,1.0
447,'99',2.2,-13.21,13.21,-13.21,0.985,0,100.0,0.0,1.0,0.0,0.0,1.0,1,100.0,40.0,2.0,1,1.0,0,1.0,0,1.0,0,1.0,0,1.0
466,'99',8.846,-75.818,550.0,-550.0,1.02,0,100.0,0.0,1.0,0.0,0.0,1.0,1,100.0,1600.0,7.577,1,1.0,0,1.0,0,1.0,0,1.0,0,1.0
483,'1',0.0,0.0,63.025,-63.025,0.9582,0,218.0,0.0,0.281,0.0,0.0,1.0,0,100.0,202.588,85.5,1,1.0,0,1.0,0,1.0,0,1.0,0,1.0
487,'1',0.0,0.0,37.471,-37.471,0.9993,0,132.35,0.0,0.157,0.0,0.0,1.0,0,100.0,120.447,33.25,1,1.0,0,1.0,0,1.0,0,1.0,0,1.0
488,'1',0.0,0.0,33.333,-33.333,1.0154,0,100.0,0.0,1.0,0.0,0.0,1.0,0,100.0,329.412,16.471,1,1.0,0,1.0,0,1.0,0,1.0,0,1.0
489,'99',2.2,6.514,19.461,-19.461,1.02,0,100.0,0.0,1.0,0.0,0.0,1.0,1,100.0,40.0,2.0,1,1.0,0,1.0,0,1.0,0,1.0,0,1.0
491,'1',0.0,0.0,33.333,-33.333,1.0133,0,100.0,0.0,1.0,0.0,0.0,1.0,0,100.0,303.529,15.176,1,1.0,0,1.0,0,1.0,0,1.0,0,1.0
491,'2',0.0,0.0,33.333,-33.333,1.0133,0,100.0,0.0,1.0,0.0,0.0,1.0,0,100.0,317.647,15.882,1,1.0,0,1.0,0,1.0,0,1.0,0,1.0
499,'1',0.0,0.0,105.513,-105.513,0.985,0,515.0,0.0,0.224,0.0,0.0,1.0,0,100.0,339.162,180.5,1,1.0,0,1.0,0,1.0,0,1.0,0,1.0
512,'99',215.076,-126.358,550.0,-550.0,1.02,0,100.0,0.0,1.0,0.0,0.0,1.0,1,100.0,1600.0,80.0,1,1.0,0,1.0,0,1.0,0,1.0,0,1.0
514,'99',2.2,-33.333,33.333,-33.333,1.00405,0,100.0,0.0,1.0,0.0,0.0,1.0,1,100.0,40.0,2.0,1,1.0,0,1.0,0,1.0,0,1.0,0,1.0
515,'1',128.25,-47.392,134.667,-134.667,1.0062,0,804.0,0.0,0.186,0.0,0.0,1.0,1,100.0,689.706,64.125,1,1.0,0,1.0,0,1.0,0,1.0,0,1.0
521,'1',0.0,0.0,96.624,-96.624,0.992,0,100.0,0.0,1.0,0.0,0.0,1.0,0,100.0,310.588,4.15,1,1.0,0,1.0,0,1.0,0,1.0,0,1.0
524,'1',0.0,0.0,67.22,-44.587,0.985,0,181.5,0.0,0.253,0.0,0.0,1.0,0,100.0,216.073,96.9,1,1.0,0,1.0,0,1.0,0,1.0,0,1.0
529,'1',0.0,0.0,62.641,-62.641,0.9993,0,200.54,0.0,0.195,0.0,0.0,1.0,0,100.0,201.353,85.5,1,1.0,0,1.0,0,1.0,0,1.0,0,1.0
546,'1',0.0,0.0,31.567,-31.567,1.0088,0,104.0,0.0,0.186,0.0,0.0,1.0,0,100.0,101.471,71.25,1,1.0,0,1.0,0,1.0,0,1.0,0,1.0
558,'99',2.2,-33.333,33.333,-33.333,0.985,0,100.0,0.0,1.0,0.0,0.0,1.0,1,100.0,40.0,2.0,1,1.0,0,1.0,0,1.0,0,1.0,0,1.0
559,'1',2.2,-181.542,217.129,-217.129,0.992,0,1055.0,0.0,0.3,0.0,0.0,1.0,1,100.0,40.0,2.0,1,1.0,0,1.0,0,1.0,0,1.0,0,1.0
562,'1',0.0,0.0,22.5,-22.5,1.0104,0,67.5,0.0,0.247,0.0057,0.1137,1.0,0,100.0,352.941,17.647,1,1.0,0,1.0,0,1.0,0,1.0,0,1.0
562,'2',0.0,0.0,17.103,-17.103,1.0104,0,67.5,0.0,0.247,0.0057,0.1137,1.0,0,100.0,54.976,26.13,1,1.0,0,1.0,0,1.0,0,1.0,0,1.0
570,'99',2.2,-27.586,27.586,-27.586,0.99563,0,100.0,0.0,1.0,0.0,0.0,1.0,1,100.0,40.0,2.0,1,1.0,0,1.0,0,1.0,0,1.0,0,1.0
571,'1',0.0,0.0,98.454,-98.454,0.985,0,100.0,0.0,1.0,0.0,0.0,1.0,0,100.0,316.471,4.917,1,1.0,0,1.0,0,1.0,0,1.0,0,1.0
575,'1',99.165,-64.35,70.7,-64.35,1.01069,0,100.0,0.0,1.0,0.0,0.0,1.0,1,100.0,307.059,15.353,1,1.0,0,1.0,0,1.0,0,1.0,0,1.0
588,'1',0.0,0.0,56.492,-56.492,1.0174,0,234.0,0.0,0.228,0.0,0.0,1.0,0,100.0,181.588,138.7,1,1.0,0,1.0,0,1.0,0,1.0,0,1.0
610,'1',0.0,0.0,18.007,-18.007,0.9844,0,100.0,0.0,1.0,0.0,0.0,1.0,0,100.0,57.882,34.2,1,1.0,0,1.0,0,1.0,0,1.0,0,1.0
617,'1',0.0,0.0,59.951,-59.951,1.0174,0,226.0,0.0,0.189,0.0,0.0,1.0,0,100.0,192.706,147.25,1,1.0,0,1.0,0,1.0,0,1.0,0,1.0
622,'1',0.0,0.0,58.1,-98.088,0.99382,0,120.0,0.0,0.157,0.0072,0.1444,1.0,0,100.0,315.294,15.765,1,1.0,0,1.0,0,1.0,0,1.0,0,1.0
622,'2',292.0,-106.872,58.1,-106.872,0.99382,0,120.0,0.0,0.157,0.0072,0.1444,1.0,1,100.0,343.529,17.176,1,1.0,0,1.0,0,1.0,0,1.0,0,1.0
622,'3',0.0,0.0,58.1,-93.696,0.99382,0,147.0,0.0,0.151,0.0105,0.21,1.0,0,100.0,301.177,5.4,1,1.0,0,1.0,0,1.0,0,1.0,0,1.0
622,'4',0.0,0.0,58.1,-98.088,0.99382,0,120.0,0.0,0.157,0.0072,0.1444,1.0,0,100.0,315.294,15.765,1,1.0,0,1.0,0,1.0,0,1.0,0,1.0
622,'5',0.0,0.0,58.1,-98.454,0.99382,0,120.0,0.0,0.157,0.0072,0.1444,1.0,0,100.0,316.471,10.52,1,1.0,0,1.0,0,1.0,0,1.0,0,1.0
622,'6',0.0,0.0,54.232,-54.232,0.99382,0,147.0,0.0,0.151,0.0105,0.21,1.0,0,100.0,174.324,79.2,1,1.0,0,1.0,0,1.0,0,1.0,0,1.0
635,'1',0.0,0.0,108.702,-49.11,0.99249,0,119.2,0.0,0.2,0.0058,0.1147,1.0,0,100.0,349.412,3.352,1,1.0,0,1.0,0,1.0,0,1.0,0,1.0
635,'2',0.0,0.0,106.506,-49.11,0.99249,0,119.2,0.0,0.2,0.0058,0.1147,1.0,0,100.0,342.353,9.14,1,1.0,0,1.0,0,1.0,0,1.0,0,1.0
635,'3',0.0,0.0,100.284,-49.11,0.99249,0,119.2,0.0,0.2,0.0058,0.1147,1.0,0,100.0,322.353,16.118,1,1.0,0,1.0,0,1.0,0,1.0,0,1.0
635,'4',0.0,0.0,32.263,-32.263,0.99249,0,115.0,0.0,0.19,0.0058,0.1147,1.0,0,100.0,103.706,55.867,1,1.0,0,1.0,0,1.0,0,1.0,0,1.0
639,'99',15.668,-0.195,550.0,-550.0,1.0,0,100.0,0.0,1.0,0.0,0.0,1.0,1,100.0,1600.0,13.421,1,1.0,0,1.0,0,1.0,0,1.0,0,1.0
651,'99',2.2,-33.333,33.333,-33.333,1.00061,0,100.0,0.0,1.0,0.0,0.0,1.0,1,100.0,40.0,2.0,1,1.0,0,1.0,0,1.0,0,1.0,0,1.0
659,'1',0.0,0.0,22.5,-22.5,1.007,0,67.5,0.0,0.247,0.0057,0.1137,1.0,0,100.0,348.235,17.412,1,1.0,0,1.0,0,1.0,0,1.0,0,1.0
659,'2',0.0,0.0,22.099,-22.099,1.007,0,67.5,0.0,0.247,0.0057,0.1137,1.0,0,100.0,71.035,23.75,1,1.0,0,1.0,0,1.0,0,1.0,0,1.0
665,'1',0.0,0.0,33.333,-33.333,1.0424,0,100.0,0.0,1.0,0.0,0.0,1.0,0,100.0,336.471,16.824,1,1.0,0,1.0,0,1.0,0,1.0,0,1.0
665,'2',0.0,0.0,33.333,-33.333,1.0424,0,100.0,0.0,1.0,0.0,0.0,1.0,0,100.0,314.118,15.706,1,1.0,0,1.0,0,1.0,0,1.0,0,1.0
666,'1',0.0,0.0,31.567,-31.567,1.0088,0,104.0,0.0,0.186,0.0,0.0,1.0,0,100.0,101.471,71.25,1,1.0,0,1.0,0,1.0,0,1.0,0,1.0
674,'1',0.0,0.0,33.333,-33.333,1.0097,0,100.0,0.0,1.0,0.0,0.0,1.0,0,100.0,340.0,17.0,1,1.0,0,1.0,0,1.0,0,1.0,0,1.0
684,'1',0.0,0.0,98.088,-0.375,0.985,0,100.0,0.0,1.0,0.0,0.0,1.0,0,100.0,315.294,3.667,1,1.0,0,1.0,0,1.0,0,1.0,0,1.0
685,'99',67.066,-57.644,550.0,-550.0,1.0393,0,100.0,0.0,1.0,0.0,0.0,1.0,1,100.0,1600.0,57.448,1,1.0,0,1.0,0,1.0,0,1.0,0,1.0
688,'1',0.0,0.0,22.5,-22.5,1.0156,0,67.5,0.0,0.165,0.0,0.0,1.0,0,100.0,298.823,14.941,1,1.0,0,1.0,0,1.0,0,1.0,0,1.0
688,'2',0.0,0.0,16.335,-16.335,1.0156,0,67.5,0.0,0.165,0.0,0.0,1.0,0,100.0,52.506,15.2,1,1.0,0,1.0,0,1.0,0,1.0,0,1.0
698,'1',298.0,-50.392,21.9,-99.0,1.00264,0,100.0,0.0,1.0,0.0,0.0,1.0,1,100.0,350.588,17.529,1,1.0,0,1.0,0,1.0,0,1.0,0,1.0
712,'1',578.912,3.835,81.85,-120.088,0.985,0,515.0,0.0,0.224,0.0,0.0,1.0,1,100.0,681.073,180.5,1,1.0,0,1.0,0,1.0,0,1.0,0,1.0
716,'1',200.48,-73.376,63.18,-73.376,0.985,0,198.9,0.0,0.1686,0.0,0.0,1.0,1,100.0,235.859,9.5,1,1.0,0,1.0,0,1.0,0,1.0,0,1.0
734,'1',53.55,-19.599,13.75,-19.599,0.99221,0,83.65,0.0,0.161,0.007,0.1397,1.0,1,100.0,73.612,19.0,1,1.0,0,1.0,0,1.0,0,1.0,0,1.0
735,'99',390.818,-83.292,550.0,-550.0,1.0364,0,100.0,0.0,1.0,0.0,0.0,1.0,1,100.0,1600.0,80.0,1,1.0,0,1.0,0,1.0,0,1.0,0,1.0
736,'99',56.269,-13.073,550.0,-550.0,1.0,0,100.0,0.0,1.0,0.0,0.0,1.0,1,100.0,1600.0,48.199,1,1.0,0,1.0,0,1.0,0,1.0,0,1.0
742,'1',0.0,0.0,59.567,-59.567,1.0174,0,226.0,0.0,0.19,0.0,0.0,1.0,0,100.0,191.471,146.3,1,1.0,0,1.0,0,1.0,0,1.0,0,1.0
750,'1',0.0,0.0,154.54,-182.9,0.985,0,444.44,0.0,0.1776,0.0,0.0,1.0,0,100.0,1080.882,291.6,1,1.0,0,1.0,0,1.0,0,1.0,0,1.0
762,'1',0.0,0.0,96.624,-96.624,0.9982,0,980.0,0.0,0.195,0.0,0.0,1.0,0,100.0,310.588,15.529,1,1.0,0,1.0,0,1.0,0,1.0,0,1.0
764,'1',0.0,0.0,94.428,-94.428,0.98857,0,100.0,0.0,1.0,0.0,0.0,1.0,0,100.0,303.529,15.176,1,1.0,0,1.0,0,1.0,0,1.0,0,1.0
764,'99',2.2,-18.809,18.809,-18.809,0.98857,0,100.0,0.0,1.0,0.0,0.0,1.0,1,100.0,60.459,2.0,1,1.0,0,1.0,0,1.0,0,1.0,0,1.0
767,'1',0.0,0.0,216.58,-140.8,0.99844,0,771.0,0.0,0.232,0.0,0.0,1.0,0,100.0,980.838,342.0,1,1.0,0,1.0,0,1.0,0,1.0,0,1.0
810,'1',0.0,0.0,32.281,-32.281,1.0139,0,108.0,0.0,0.214,0.0,0.0,1.0,0,100.0,103.765,42.75,1,1.0,0,1.0,0,1.0,0,1.0,0,1.0
814,'99',375.809,-43.962,550.0,-550.0,1.0113,0,100.0,0.0,1.0,0.0,0.0,1.0,1,100.0,1600.0,80.0,1,1.0,0,1.0,0,1.0,0,1.0,0,1.0
816,'1',0.0,0.0,33.05,-33.05,1.0139,0,108.0,0.0,0.214,0.0,0.0,1.0,0,100.0,106.235,42.75,1,1.0,0,1.0,0,1.0,0,1.0,0,1.0
818,'1',0.0,0.0,42.273,-42.273,1.0215,0,235.83,0.0,0.2302,0.0,0.0,1.0,0,100.0,135.882,99.75,1,1.0,0,1.0,0,1.0,0,1.0,0,1.0
818,'2',0.0,0.0,88.433,-88.433,1.0215,0,265.3,0.0,0.2302,0.0,0.0,1.0,0,100.0,338.823,16.941,1,1.0,0,1.0,0,1.0,0,1.0,0,1.0
818,'3',0.0,0.0,58.957,-58.957,1.0215,0,176.87,0.0,0.2302,0.0,0.0,1.0,0,100.0,347.059,17.353,1,1.0,0,1.0,0,1.0,0,1.0,0,1.0
820,'1',0.0,0.0,32.281,-32.281,1.0139,0,108.0,0.0,0.214,0.0,0.0,1.0,0,100.0,103.765,42.75,1,1.0,0,1.0,0,1.0,0,1.0,0,1.0
823,'1',212.1,-36.63,77.629,-36.63,1.00005,0,235.83,0.0,0.23018,0.0,0.0,1.0,1,100.0,249.529,46.067,1,1.0,0,1.0,0,1.0,0,1.0,0,1.0
823,'2',0.0,0.0,25.25,-10.89,1.00005,0,265.3,0.0,0.23018,0.0,0.0,1.0,0,100.0,277.941,13.897,1,1.0,0,1.0,0,1.0,0,1.0,0,1.0
823,'3',0.0,0.0,28.823,-28.823,1.00005,0,176.87,0.0,0.23018,0.0,0.0,1.0,0,100.0,92.647,34.358,1,1.0,0,1.0,0,1.0,0,1.0,0,1.0
824,'99',48.606,96.608,550.0,-550.0,1.0163,0,100.0,0.0,1.0,0.0,0.0,1.0,1,100.0,1600.0,9.534,1,1.0,0,1.0,0,1.0,0,1.0,0,1.0
826,'1',0.0,0.0,1.443,-1.443,0.9761,0,4.33,0.0,0.2096,0.0,0.0,1.0,0,100.0,348.235,17.412,1,1.0,0,1.0,0,1.0,0,1.0,0,1.0
826,'2',0.0,0.0,1.443,-1.443,0.9761,0,4.33,0.0,0.2096,0.0,0.0,1.0,0,100.0,309.412,3.42,1,1.0,0,1.0,0,1.0,0,1.0,0,1.0
826,'3',0.0,0.0,1.443,-1.443,0.9761,0,4.33,0.0,0.2096,0.0,0.0,1.0,0,100.0,309.412,15.471,1,1.0,0,1.0,0,1.0,0,1.0,0,1.0
827,'1',0.0,0.0,33.05,-33.05,1.0139,0,108.0,0.0,0.214,0.0,0.0,1.0,0,100.0,106.235,42.75,1,1.0,0,1.0,0,1.0,0,1.0,0,1.0
829,'1',0.0,0.0,131.431,-131.431,1.0155,0,491.41,0.0,0.21,0.0,0.0,1.0,0,100.0,422.471,203.3,1,1.0,0,1.0,0,1.0,0,1.0,0,1.0
829,'2',0.0,0.0,9.662,-9.662,1.0155,0,33.7,0.0,0.21,0.0,0.0,1.0,0,100.0,31.059,11.4,1,1.0,0,1.0,0,1.0,0,1.0,0,1.0
829,'3',0.0,0.0,64.562,-64.562,1.0155,0,242.59,0.0,0.21,0.0,0.0,1.0,0,100.0,207.529,72.2,1,1.0,0,1.0,0,1.0,0,1.0,0,1.0
829,'4',0.0,0.0,0.0,0.0,1.0155,0,300.0,0.0,0.21,0.0,0.0,1.0,0,100.0,324.706,5.7,1,1.0,0,1.0,0,1.0,0,1.0,0,1.0
837,'99',2.2,-33.333,33.333,-33.333,0.98758,0,100.0,0.0,1.0,0.0,0.0,1.0,1,100.0,40.0,2.0,1,1.0,0,1.0,0,1.0,0,1.0,0,1.0
838,'1',348.488,-24.154,127.547,-127.547,1.00243,0,387.5,0.0,0.2596,0.0,0.0,1.0,1,100.0,409.986,171.0,1,1.0,0,1.0,0,1.0,0,1.0,0,1.0
839,'1',0.0,0.0,33.05,-33.05,1.0139,0,108.0,0.0,0.214,0.0,0.0,1.0,0,100.0,106.235,42.75,1,1.0,0,1.0,0,1.0,0,1.0,0,1.0
840,'1',0.0,0.0,33.05,-33.05,1.0139,0,108.0,0.0,0.214,0.0,0.0,1.0,0,100.0,106.235,42.75,1,1.0,0,1.0,0,1.0,0,1.0,0,1.0
841,'1',0.0,0.0,102.992,-102.992,1.00243,0,387.5,0.0,0.2596,0.0,0.0,1.0,0,100.0,331.059,171.0,1,1.0,0,1.0,0,1.0,0,1.0,0,1.0
842,'1',0.0,0.0,41.861,-41.58,1.00005,0,235.83,0.0,0.23018,0.0,0.0,1.0,0,100.0,134.559,76.25,1,1.0,0,1.0,0,1.0,0,1.0,0,1.0
842,'2',0.0,0.0,46.619,-46.619,1.00005,0,265.3,0.0,0.23018,0.0,0.0,1.0,0,100.0,149.853,84.917,1,1.0,0,1.0,0,1.0,0,1.0,0,1.0
842,'3',0.0,0.0,28.786,-28.786,1.00005,0,176.87,0.0,0.23018,0.0,0.0,1.0,0,100.0,92.529,56.642,1,1.0,0,1.0,0,1.0,0,1.0,0,1.0
850,'1',0.0,0.0,251.33,-212.5,1.00243,0,636.62,0.0,0.22,0.0,0.0,1.0,0,100.0,810.595,484.5,1,1.0,0,1.0,0,1.0,0,1.0,0,1.0
853,'1',0.0,0.0,77.629,-77.629,1.0215,0,235.83,0.0,0.2302,0.0,0.0,1.0,0,100.0,249.529,99.75,1,1.0,0,1.0,0,1.0,0,1.0,0,1.0
853,'2',0.0,0.0,88.433,-88.433,1.0215,0,265.3,0.0,0.2302,0.0,0.0,1.0,0,100.0,302.353,15.118,1,1.0,0,1.0,0,1.0,0,1.0,0,1.0
853,'3',0.0,0.0,58.957,-58.957,1.0215,0,176.87,0.0,0.2302,0.0,0.0,1.0,0,100.0,307.059,15.353,1,1.0,0,1.0,0,1.0,0,1.0,0,1.0
858,'99',2.2,-32.143,32.143,-32.143,1.00552,0,100.0,0.0,1.0,0.0,0.0,1.0,1,100.0,40.0,2.0,1,1.0,0,1.0,0,1.0,0,1.0,0,1.0
859,'1',0.0,0.0,11.053,-11.053,0.9891,0,100.0,0.0,0.15,0.0,0.0,1.0,0,100.0,35.529,15.2,1,1.0,0,1.0,0,1.0,0,1.0,0,1.0
862,'99',2.2,-9.151,9.151,-9.151,1.00132,0,100.0,0.0,1.0,0.0,0.0,1.0,1,100.0,40.0,2.0,1,1.0,0,1.0,0,1.0,0,1.0,0,1.0
868,'99',916.858,26.459,550.0,-550.0,1.0378,0,100.0,0.0,1.0,0.0,0.0,1.0,1,100.0,1764.226,80.0,1,1.0,0,1.0,0,1.0,0,1.0,0,1.0
869,'99',30.579,90.268,550.0,-550.0,1.0275,0,100.0,0.0,1.0,0.0,0.0,1.0,1,100.0,1600.0,26.194,1,1.0,0,1.0,0,1.0,0,1.0,0,1.0
871,'1',646.781,-49.5,340.879,-49.5,1.006,0,1020.0,0.0,0.28,0.0,0.0,1.0,1,100.0,1095.722,646.781,1,1.0,0,1.0,0,1.0,0,1.0,0,1.0
873,'1',0.0,0.0,29.207,-29.207,1.0332,0,100.0,0.0036,0.166,0.0,0.0,1.0,0,100.0,93.882,31.35,1,1.0,0,1.0,0,1.0,0,1.0,0,1.0
879,'1',0.0,0.0,33.333,-33.333,1.0332,0,100.0,0.0035,0.23,0.0,0.0,1.0,0,100.0,122.294,74.1,1,1.0,0,1.0,0,1.0,0,1.0,0,1.0
880,'99',2.2,-31.492,31.492,-31.492,1.01442,0,100.0,0.0,1.0,0.0,0.0,1.0,1,100.0,40.0,2.0,1,1.0,0,1.0,0,1.0,0,1.0,0,1.0
882,'1',0.0,0.0,201.758,-201.758,1.0332,0,732.0,0.0005,0.205,0.0,0.0,1.0,0,100.0,648.529,498.75,1,1.0,0,1.0,0,1.0,0,1.0,0,1.0
883,'99',36.522,-117.49,550.0,-550.0,1.02,0,100.0,0.0,1.0,0.0,0.0,1.0,1,100.0,1600.0,31.284,1,1.0,0,1.0,0,1.0,0,1.0,0,1.0
884,'1',0.0,0.0,27.285,-27.285,1.0332,0,100.0,0.0036,0.166,0.0,0.0,1.0,0,100.0,87.706,31.35,1,1.0,0,1.0,0,1.0,0,1.0,0,1.0
886,'99',2.2,-33.333,33.333,-33.333,1.00271,0,100.0,0.0,1.0,0.0,0.0,1.0,1,100.0,40.0,2.0,1,1.0,0,1.0,0,1.0,0,1.0,0,1.0
888,'99',2.2,-9.15,9.15,-9.15,1.00133,0,100.0,0.0,1.0,0.0,0.0,1.0,1,100.0,40.0,2.0,1,1.0,0,1.0,0,1.0,0,1.0,0,1.0
890,'1',0.0,0.0,26.901,-26.901,1.0021,0,100.0,0.0048,0.128,0.0,0.0,1.0,0,100.0,86.471,29.45,1,1.0,0,1.0,0,1.0,0,1.0,0,1.0
892,'1',0.0,0.0,102.48,-102.48,1.00824,0,214.0,0.0003,0.15,0.0,0.0,1.0,0,100.0,329.412,16.471,1,1.0,0,1.0,0,1.0,0,1.0,0,1.0
892,'2',0.0,0.0,62.451,-62.451,1.00824,0,214.0,0.0003,0.15,0.0,0.0,1.0,0,100.0,200.741,80.75,1,1.0,0,1.0,0,1.0,0,1.0,0,1.0
893,'1',0.0,0.0,71.333,-71.333,1.0332,0,214.0,0.0003,0.15,0.0,0.0,1.0,0,100.0,328.235,16.412,1,1.0,0,1.0,0,1.0,0,1.0,0,1.0
893,'2',0.0,0.0,64.562,-64.562,1.0332,0,214.0,0.0003,0.15,0.0,0.0,1.0,0,100.0,207.529,89.3,1,1.0,0,1.0,0,1.0,0,1.0,0,1.0
896,'1',709.7,-75.17,259.75,-75.17,1.00824,0,732.0,0.0005,0.205,0.0,0.0,1.0,1,100.0,834.941,473.133,1,1.0,0,1.0,0,1.0,0,1.0,0,1.0
901,'1',0.0,0.0,33.333,-33.333,1.0332,0,100.0,0.0035,0.23,0.0,0.0,1.0,0,100.0,122.294,57.0,1,1.0,0,1.0,0,1.0,0,1.0,0,1.0
902,'1',0.0,0.0,220.937,-49.5,1.006,0,1012.0,0.0,0.292,0.0,0.0,1.0,0,100.0,1300.045,736.692,1,1.0,0,1.0,0,1.0,0,1.0,0,1.0
905,'1',0.0,0.0,11.749,-11.749,0.9891,0,100.0,0.0,0.15,0.0,0.0,1.0,0,100.0,37.765,17.1,1,1.0,0,1.0,0,1.0,0,1.0,0,1.0
908,'1',0.0,0.0,55.248,-55.248,0.999,0,250.0,0.0,0.243,0.0,0.0,1.0,0,100.0,177.588,8.879,1,1.0,0,1.0,0,1.0,0,1.0,0,1.0
910,'1',0.0,0.0,0.417,-0.417,1.00782,0,1.25,0.0,0.15,0.02,0.78,1.025,0,100.0,331.765,16.588,1,1.0,0,1.0,0,1.0,0,1.0,0,1.0
910,'99',2.2,-18.464,18.464,-18.464,1.00782,0,100.0,0.0,1.0,0.0,0.0,1.0,1,100.0,59.352,2.0,1,1.0,0,1.0,0,1.0,0,1.0,0,1.0
913,'1',0.0,0.0,10.1,-9.775,0.992,0,25.98,0.0,0.195,0.0,0.0,1.0,0,100.0,75.074,20.65,1,1.0,0,1.0,0,1.0,0,1.0,0,1.0
914,'1',0.0,0.0,40.352,-40.352,1.0243,0,128.0,0.0,0.115,0.0,0.0,1.0,0,100.0,129.706,99.75,1,1.0,0,1.0,0,1.0,0,1.0,0,1.0
917,'1',0.0,0.0,21.136,-21.136,0.9454,0,100.0,0.0,1.0,0.0,0.0,1.0,0,100.0,67.941,42.75,1,1.0,0,1.0,0,1.0,0,1.0,0,1.0
918,'1',0.0,0.0,31.183,-31.183,1.01,0,113.0,0.0,0.224,0.0,0.0,1.0,0,100.0,100.235,70.2,1,1.0,0,1.0,0,1.0,0,1.0,0,1.0
918,'2',0.0,0.0,29.968,-29.968,1.01,0,113.0,0.0,0.224,0.0,0.0,1.0,0,100.0,96.329,66.88,1,1.0,0,1.0,0,1.0,0,1.0,0,1.0
919,'1',4.75,-3.96,10.1,-3.96,0.99949,0,43.45,0.0,0.165,0.0,0.0,1.0,1,100.0,64.953,4.75,1,1.0,0,1.0,0,1.0,0,1.0,0,1.0
924,'99',168.92,-33.333,33.333,-33.333,1.01041,0,100.0,0.0,1.0,0.0,0.0,1.0,1,100.0,192.94,8.254,1,1.0,0,1.0,0,1.0,0,1.0,0,1.0
929,'1',0.0,0.0,10.1,-10.287,0.992,0,44.0,0.0,0.195,0.0,0.0,1.0,0,100.0,48.176,4.75,1,1.0,0,1.0,0,1.0,0,1.0,0,1.0
931,'1',0.0,0.0,21.136,-21.136,0.9454,0,100.0,0.0,1.0,0.0,0.0,1.0,0,100.0,67.941,42.75,1,1.0,0,1.0,0,1.0,0,1.0,0,1.0
931,'2',0.0,0.0,21.136,-21.136,0.9454,0,100.0,0.0,1.0,0.0,0.0,1.0,0,100.0,67.941,42.75,1,1.0,0,1.0,0,1.0,0,1.0,0,1.0
...
0 / END OF GENERATOR DATA BEGIN BRANCH DATA
3,17,'1',0.0062,0.0245,0.0,260.0,312.0,390.0,0.0,0.0,0.0,0.0,1,1,0.0,1,1.0,0,1.0,0,1.0,0,1.0
3,25,'1',0.0044,0.0165,0.0,260.0,312.0,390.0,0.0,0.0,0.0,0.0,1,2,0.0,1,1.0,0,1.0,0,1.0,0,1.0
6,17,'1',0.0163,0.0655,0.0,260.0,312.0,390.0,0.0,0.0,0.0,0.0,1,1,0.0,1,1.0,0,1.0,0,1.0,0,1.0
9,15,'1',0.0257,0.0526,0.0,62.0,81.0,81.0,0.0,0.0,0.0,0.0,1,1,0.0,1,1.0,0,1.0,0,1.0,0,1.0
9,18,'1',0.0063,0.0149,0.0,74.0,88.0,88.0,0.0,0.0,0.0,0.0,1,1,0.0,1,1.0,0,1.0,0,1.0,0,1.0
10,12,'1',0.03,0.0878,0.0,62.0,81.0,81.0,0.0,0.0,0.0,0.0,1,1,0.0,1,1.0,0,1.0,0,1.0,0,1.0
10,16,'1',0.03,0.12929,0.0,57.0,64.0,64.0,0.0,0.0,0.0,0.0,1,1,0.0,1,1.0,0,1.0,0,1.0,0,1.0
11,23,'1',0.03,0.14678,0.0,260.0,312.0,390.0,0.0,0.0,0.0,0.0,1,2,0.0,1,1.0,0,1.0,0,1.0,0,1.0
11,25,'1',0.01389,0.0333,0.0,260.0,312.0,390.0,0.0,0.0,0.0,0.0,1,2,0.0,1,1.0,0,1.0,0,1.0,0,1.0
12,25,'1',0.03,0.1182,0.0,36.0,54.0,54.0,0.0,0.0,0.0,0.0,1,2,0.0,1,1.0,0,1.0,0,1.0,0,1.0
13,14,'1',0.0106,0.0205,0.0,62.0,81.0,81.0,0.0,0.0,0.0,0.0,1,1,0.0,1,1.0,0,1.0,0,1.0,0,1.0
13,16,'1',0.0269,0.0519,0.0,62.0,81.0,81.0,0.0,0.0,0.0,0.0,1,1,0.0,1,1.0,0,1.0,0,1.0,0,1.0
16,18,'1',0.03,0.0794,0.0,74.0,88.0,88.0,0.0,0.0,0.0,0.0,1,1,0.0,1,1.0,0,1.0,0,1.0,0,1.0
16,991,'TL',0.0001,0.01,0.0,83.7,98.6,125.55,0.0,0.0,0.0,0.0,1,2,0.0,18,1.0,0,1.0,0,1.0,0,1.0
18,26,'1',0.03,0.0826,0.0,43.0,47.0,47.0,0.0,0.0,0.0,0.0,1,2,0.0,1,1.0,0,1.0,0,1.0,0,1.0
19,26,'1',0.03,0.0751,0.0,74.0,95.0,95.0,0.0,0.0,0.0,0.0,1,2,0.0,1,1.0,0,1.0,0,1.0,0,1.0
23,4593,'TL',0.0001,0.01,0.0,83.7,98.6,125.55,0.0,0.0,0.0,0.0,1,1,0.0,14,1.0,0,1.0,0,1.0,0,1.0
28,58,'1',0.0013,0.0099,0.02132,260.0,312.0,390.0,0.0,0.0,0.0,0.0,1,2,0.0,1,1.0,0,1.0,0,1.0,0,1.0
30,34,'1',0.03,0.15,0.0,260.0,312.0,390.0,0.0,0.0,0.0,0.0,1,1,0.0,1,1.0,0,1.0,0,1.0,0,1.0
30,37,'1',0.03,0.15,0.0,260.0,312.0,390.0,0.0,0.0,0.0,0.0,1,2,0.0,1,1.0,0,1.0,0,1.0,0,1.0
30,55,'1',0.03,0.15,0.0,260.0,312.0,390.0,0.0,0.0,0.0,0.0,1,2,0.0,1,1.0,0,1.0,0,1.0,0,1.0
30,56,'1',0.03,0.15,0.0,260.0,312.0,390.0,0.0,0.0,0.0,0.0,1,2,0.0,1,1.0,0,1.0,0,1.0,0,1.0
30,60,'1',0.03,0.15,0.0,260.0,312.0,390.0,0.0,0.0,0.0,0.0,1,1,0.0,1,1.0,0,1.0,0,1.0,0,1.0
30,71,'1',0.03,0.15,0.0,260.0,312.0,390.0,0.0,0.0,0.0,0.0,1,1,0.0,1,1.0,0,1.0,0,1.0,0,1.0
31,36,'1',0.03,0.15,0.0,260.0,312.0,390.0,0.0,0.0,0.0,0.0,1,1,0.0,1,1.0,0,1.0,0,1.0,0,1.0
31,42,'1',0.0111,0.15,0.0,260.0,312.0,390.0,0.0,0.0,0.0,0.0,1,1,0.0,1,1.0,0,1.0,0,1.0,0,1.0
31,60,'1',0.03,0.15,0.0,260.0,312.0,390.0,0.0,0.0,0.0,0.0,1,1,0.0,1,1.0,0,1.0,0,1.0,0,1.0
32,36,'1',0.03,0.15,0.0,260.0,312.0,390.0,0.0,0.0,0.0,0.0,1,1,0.0,1,1.0,0,1.0,0,1.0,0,1.0
32,74,'1',0.03,0.15,0.0,260.0,312.0,390.0,0.0,0.0,0.0,0.0,1,1,0.0,1,1.0,0,1.0,0,1.0,0,1.0
33,43,'1',0.0042,0.0253,0.0485,260.0,312.0,390.0,0.0,0.0,0.0,0.0,1,1,0.0,1,1.0,0,1.0,0,1.0,0,1.0
33,81,'1',0.0046,0.0315,0.059,260.0,312.0,390.0,0.0,0.0,0.0,0.0,1,2,0.0,1,1.0,0,1.0,0,1.0,0,1.0
34,55,'1',-0.0656,0.15,0.0,260.0,312.0,390.0,0.0,0.0,0.0,0.0,1,2,0.0,1,1.0,0,1.0,0,1.0,0,1.0
34,60,'1',0.03,0.15,0.0,260.0,312.0,390.0,0.0,0.0,0.0,0.0,1,1,0.0,1,1.0,0,1.0,0,1.0,0,1.0
34,71,'1',0.0162,0.15,0.0,260.0,312.0,390.0,0.0,0.0,0.0,0.0,1,1,0.0,1,1.0,0,1.0,0,1.0,0,1.0
35,37,'1',-0.0598,0.15,0.0,260.0,312.0,390.0,0.0,0.0,0.0,0.0,1,2,0.0,1,1.0,0,1.0,0,1.0,0,1.0
35,56,'1',-0.0578,0.15,0.0,260.0,312.0,390.0,0.0,0.0,0.0,0.0,1,2,0.0,1,1.0,0,1.0,0,1.0,0,1.0
35,61,'1',0.01979,0.0496,0.0,260.0,312.0,390.0,0.0,0.0,0.0,0.0,1,2,0.0,1,1.0,0,1.0,0,1.0,0,1.0
36,37,'1',0.03,0.15,0.0,260.0,312.0,390.0,0.0,0.0,0.0,0.0,1,2,0.0,1,1.0,0,1.0,0,1.0,0,1.0
36,42,'1',0.03,0.15,0.0,260.0,312.0,390.0,0.0,0.0,0.0,0.0,1,2,0.0,1,1.0,0,1.0,0,1.0,0,1.0
36,56,'1',0.03,0.15,0.0,260.0,312.0,390.0,0.0,0.0,0.0,0.0,1,2,0.0,1,1.0,0,1.0,0,1.0,0,1.0
36,60,'1',0.03,0.15,0.0,260.0,312.0,390.0,0.0,0.0,0.0,0.0,1,1,0.0,1,1.0,0,1.0,0,1.0,0,1.0
36,61,'1',0.03,0.15,0.0,260.0,312.0,390.0,0.0,0.0,0.0,0.0,1,2,0.0,1,1.0,0,1.0,0,1.0,0,1.0
36,74,'1',0.03,0.15,0.0,260.0,312.0,390.0,0.0,0.0,0.0,0.0,1,1,0.0,1,1.0,0,1.0,0,1.0,0,1.0
37,55,'1',0.03,0.15,0.0,260.0,312.0,390.0,0.0,0.0,0.0,0.0,1,1,0.0,1,1.0,0,1.0,0,1.0,0,1.0
37,56,'1',0.0009,0.0008,0.0,260.0,312.0,390.0,0.0,0.0,0.0,0.0,1,2,0.0,1,1.0,0,1.0,0,1.0,0,1.0
37,60,'1',0.03,0.15,0.0,260.0,312.0,390.0,0.0,0.0,0.0,0.0,1,1,0.0,1,1.0,0,1.0,0,1.0,0,1.0
37,61,'1',0.01526,0.02962,0.0,260.0,312.0,390.0,0.0,0.0,0.0,0.0,1,1,0.0,1,1.0,0,1.0,0,1.0,0,1.0
38,74,'1',0.03,0.15,0.0,260.0,312.0,390.0,0.0,0.0,0.0,0.0,1,1,0.0,1,1.0,0,1.0,0,1.0,0,1.0
38,76,'1',0.03,0.15,0.0,260.0,312.0,390.0,0.0,0.0,0.0,0.0,1,1,0.0,1,1.0,0,1.0,0,1.0,0,1.0
39,45,'1',0.0136,0.0903,0.1732,260.0,312.0,390.0,0.0,0.0,0.0,0.0,1,1,0.0,1,1.0,0,1.0,0,1.0,0,1.0
39,183,'TL',0.0001,0.01,0.0,133.13,159.75,199.69,0.0,0.0,0.0,0.0,1,1,0.0,150,1.0,0,1.0,0,1.0,0,1.0
40,49,'1',0.0154,0.0991,0.17817,546.73,656.08,820.1,0.0,0.0,0.0,0.0,1,1,0.0,1,1.0,0,1.0,0,1.0,0,1.0
40,58,'1',0.0122,0.0943,0.18743,260.0,312.0,390.0,0.0,0.0,0.0,0.0,1,2,0.0,1,1.0,0,1.0,0,1.0,0,1.0
40,66,'1',0.0065,0.0503,0.10008,260.0,312.0,390.0,0.0,0.0,0.0,0.0,1,1,0.0,1,1.0,0,1.0,0,1.0,0,1.0
40,67,'1',0.0022,0.0262,0.05566,675.98,811.18,1013.98,0.0,0.0,0.0,0.0,1,1,0.0,1,1.0,0,1.0,0,1.0,0,1.0
40,67,'2',0.0027,0.0268,0.05696,673.14,807.77,1009.71,0.0,0.0,0.0,0.0,1,1,0.0,1,1.0,0,1.0,0,1.0,0,1.0
41,1978,'TL',0.0001,0.01,0.0,351.0,386.1,421.2,0.0,0.0,0.0,0.0,1,1,0.0,122,1.0,0,1.0,0,1.0,0,1.0
42,60,'1',0.03,0.15,0.0,260.0,312.0,390.0,0.0,0.0,0.0,0.0,1,1,0.0,1,1.0,0,1.0,0,1.0,0,1.0
43,736,'TL',0.0001,0.01,0.0,204.0,224.4,244.8,0.0,0.0,0.0,0.0,1,1,0.0,151,1.0,0,1.0,0,1.0,0,1.0
44,70,'1',0.0123,0.0822,0.15137,260.0,312.0,390.0,0.0,0.0,0.0,0.0,1,2,0.0,1,1.0,0,1.0,0,1.0,0,1.0
44,79,'1',0.0057,0.0382,0.07047,260.0,312.0,390.0,0.0,0.0,0.0,0.0,1,2,0.0,1,1.0,0,1.0,0,1.0,0,1.0
45,62,'1',0.00605,0.03642,0.06956,260.0,312.0,390.0,0.0,0.0,0.0,0.0,1,2,0.0,1,1.0,0,1.0,0,1.0,0,1.0
45,79,'1',0.00203,0.01191,0.02399,260.0,312.0,390.0,0.0,0.0,0.0,0.0,1,2,0.0,1,1.0,0,1.0,0,1.0,0,1.0
46,80,'1',0.00116,0.0314,2.6586,674.53,809.44,1011.8,0.0,0.0,0.0,0.0,1,2,0.0,1,1.0,0,1.0,0,1.0,0,1.0
49,72,'1',0.0106,0.0684,0.13505,260.0,312.0,390.0,0.0,0.0,0.0,0.0,1,2,0.0,1,1.0,0,1.0,0,1.0,0,1.0
49,75,'1',0.0112,0.0727,0.14343,260.0,312.0,390.0,0.0,0.0,0.0,0.0,1,1,0.0,1,1.0,0,1.0,0,1.0,0,1.0
49,77,'1',0.00197,0.01283,0.02477,260.0,312.0,390.0,0.0,0.0,0.0,0.0,1,2,0.0,1,1.0,0,1.0,0,1.0,0,1.0
50,2001,'TL',0.0001,0.01,0.0,390.75,468.9,586.12,0.0,0.0,0.0,0.0,1,2,0.0,124,1.0,0,1.0,0,1.0,0,1.0
51,63,'1',0.0045,0.0221,0.00642,260.0,312.0,390.0,0.0,0.0,0.0,0.0,1,1,0.0,1,1.0,0,1.0,0,1.0,0,1.0
53,72,'1',0.0034,0.0221,0.04362,260.0,312.0,390.0,0.0,0.0,0.0,0.0,1,2,0.0,1,1.0,0,1.0,0,1.0,0,1.0
54,76,'1',0.03,0.15,0.0,260.0,312.0,390.0,0.0,0.0,0.0,0.0,1,1,0.0,1,1.0,0,1.0,0,1.0,0,1.0
54,1587,'TL',0.0001,0.01,0.0,83.7,98.6,125.55,0.0,0.0,0.0,0.0,1,2,0.0,126,1.0,0,1.0,0,1.0,0,1.0
55,56,'1',0.03,0.15,0.0,260.0,312.0,390.0,0.0,0.0,0.0,0.0,1,2,0.0,1,1.0,0,1.0,0,1.0,0,1.0
55,60,'1',0.03,0.15,0.0,260.0,312.0,390.0,0.0,0.0,0.0,0.0,1,1,0.0,1,1.0,0,1.0,0,1.0,0,1.0
55,71,'1',-0.0656,0.15,0.0,260.0,312.0,390.0,0.0,0.0,0.0,0.0,1,1,0.0,1,1.0,0,1.0,0,1.0,0,1.0
56,61,'1',0.01598,0.03011,0.0,260.0,312.0,390.0,0.0,0.0,0.0,0.0,1,1,0.0,1,1.0,0,1.0,0,1.0,0,1.0
57,59,'1',0.01265,0.06079,0.0289,260.0,312.0,390.0,0.0,0.0,0.0,0.0,1,1,0.0,1,1.0,0,1.0,0,1.0,0,1.0
57,68,'1',0.0239,0.1186,0.06562,260.0,312.0,390.0,0.0,0.0,0.0,0.0,1,1,0.0,1,1.0,0,1.0,0,1.0,0,1.0
58,70,'1',0.0001,0.001,0.00208,260.0,312.0,390.0,0.0,0.0,0.0,0.0,1,1,0.0,1,1.0,0,1.0,0,1.0,0,1.0
60,71,'1',0.03,0.15,0.0,260.0,312.0,390.0,0.0,0.0,0.0,0.0,1,2,0.0,1,1.0,0,1.0,0,1.0,0,1.0
62,69,'1',0.00421,0.0253,0.04874,260.0,312.0,390.0,0.0,0.0,0.0,0.0,1,2,0.0,1,1.0,0,1.0,0,1.0,0,1.0
64,65,'1',0.0044,0.034,0.06751,260.0,312.0,390.0,0.0,0.0,0.0,0.0,1,1,0.0,1,1.0,0,1.0,0,1.0,0,1.0
64,66,'1',0.0049,0.0375,0.07449,416.0,499.2,624.01,0.0,0.0,0.0,0.0,1,2,0.0,1,1.0,0,1.0,0,1.0,0,1.0
65,67,'1',0.0048,0.0569,0.12161,260.0,312.0,390.0,0.0,0.0,0.0,0.0,1,2,0.0,1,1.0,0,1.0,0,1.0,0,1.0
66,70,'1',0.0091,0.0698,0.13869,260.0,312.0,390.0,0.0,0.0,0.0,0.0,1,2,0.0,1,1.0,0,1.0,0,1.0,0,1.0
69,731,'TL',0.0001,0.01,0.0,161.0,177.1,193.2,0.0,0.0,0.0,0.0,1,2,0.0,152,1.0,0,1.0,0,1.0,0,1.0
73,1986,'TL',0.0001,0.01,0.0,238.0,261.8,285.6,0.0,0.0,0.0,0.0,1,2,0.0,123,1.0,0,1.0,0,1.0,0,1.0
77,81,'1',0.01244,0.081,0.1561,260.0,312.0,390.0,0.0,0.0,0.0,0.0,1,2,0.0,1,1.0,0,1.0,0,1.0,0,1.0
78,2013,'TL',0.0001,0.01,0.0,128.1,153.72,192.15,0.0,0.0,0.0,0.0,1,2,0.0,125,1.0,0,1.0,0,1.0,0,1.0
83,182,'1',0.00183,0.00937,0.00122,187.0,190.0,190.0,0.0,0.0,0.0,0.0,1,2,0.0,1,1.0,0,1.0,0,1.0,0,1.0
83,394,'1',0.00022,0.00113,0.00012,141.0,153.0,153.0,0.0,0.0,0.0,0.0,1,2,0.0,1,1.0,0,1.0,0,1.0,0,1.0
85,314,'1',0.01166,0.04179,0.00542,128.0,128.0,128.0,0.0,0.0,0.0,0.0,1,1,0.0,1,1.0,0,1.0,0,1.0,0,1.0
85,778,'1',0.00022,0.001,0.0,128.0,128.0,128.0,0.0,0.0,0.0,0.0,1,2,0.0,1,1.0,0,1.0,0,1.0,0,1.0
90,428,'1',0.00763,0.03119,0.00742,359.0,359.0,359.0,0.0,0.0,0.0,0.0,1,2,0.0,1,1.0,0,1.0,0,1.0,0,1.0
90,1214,'TL',0.0001,0.01,0.0,128.57,154.28,192.85,0.0,0.0,0.0,0.0,1,2,0.0,166,1.0,0,1.0,0,1.0,0,1.0
91,674,'1',0.00046,0.00369,0.01465,782.0,782.0,782.0,0.0,0.0,0.0,0.0,1,1,0.0,1,1.0,0,1.0,0,1.0,0,1.0
91,759,'1',0.00108,0.00864,0.0032,782.0,782.0,782.0,0.0,0.0,0.0,0.0,1,1,0.0,1,1.0,0,1.0,0,1.0,0,1.0
92,404,'1',0.00131,0.00851,0.00107,241.0,241.0,241.0,0.0,0.0,0.0,0.0,1,1,0.0,1,1.0,0,1.0,0,1.0,0,1.0
94,753,'1',0.00056,0.00423,0.01581,1080.0,1080.0,1080.0,0.0,0.0,0.0,0.0,1,2,0.0,1,1.0,0,1.0,0,1.0,0,1.0
96,642,'1',0.0033,0.01223,0.00197,141.0,153.0,153.0,0.0,0.0,0.0,0.0,1,1,0.0,1,1.0,0,1.0,0,1.0,0,1.0
97,582,'1',0.00036,0.00336,0.013,940.0,1020.0,1020.0,0.0,0.0,0.0,0.0,1,2,0.0,1,1.0,0,1.0,0,1.0,0,1.0
...